2022-08-12T16:23:02,485  INFO Gbl:63 JVM: 12.0.1; Oracle Corporation; mixed mode, sharing; 64-bit
2022-08-12T16:23:02,487  INFO Gbl:67 OS: Mac OS X; 10.16; x86_64
2022-08-12T16:23:02,488  INFO Gbl:70 CPU cores: 4
2022-08-12T16:23:02,499  INFO Gbl:71 max. Memory: 2048.0MB (2147483648B)
2022-08-12T16:23:02,543  INFO Gbl:109 MATSim-Build: r80b56afa925946d766cb91527373393989f56e81 (2022-04-11 15:06:39)
2022-08-12T16:23:02,607  INFO ControlerListenerManagerImpl:107 calling notifyStartup on org.matsim.guice.DependencyGraphControlerListener
2022-08-12T16:23:02,606  INFO MemoryObserver:41 used RAM: 108 MB  free: 21 MB  total: 130 MB
2022-08-12T16:23:02,935  INFO ControlerListenerManagerImpl:107 calling notifyStartup on org.matsim.counts.CountsControlerListener
2022-08-12T16:23:02,935  INFO ControlerListenerManagerImpl:107 calling notifyStartup on org.matsim.analysis.ModeStatsControlerListener
2022-08-12T16:23:02,935  INFO ControlerListenerManagerImpl:107 calling notifyStartup on org.matsim.analysis.ScoreStatsControlerListener
2022-08-12T16:23:02,936  INFO ControlerListenerManagerImpl:110 all ControlerStartupListeners called.
2022-08-12T16:23:02,937  INFO ControlerUtils:79 config dump before iterations start
2022-08-12T16:23:02,986  INFO ControlerUtils:83 

<?xml version="1.0" encoding="UTF-8"?>
<!DOCTYPE config SYSTEM "http://www.matsim.org/files/dtd/config_v2.dtd">
<config>
	<module name="JDEQSim" >
		<param name="carSize" value="7.5" />
		<param name="endTime" value="undefined" />
		<param name="flowCapacityFactor" value="1.0" />
		<param name="gapTravelSpeed" value="15.0" />
		<param name="minimumInFlowCapacity" value="1800.0" />
		<param name="squeezeTime" value="1800.0" />
		<param name="storageCapacityFactor" value="1.0" />
	</module>
	<module name="ReplanningAnnealer" >
		<!-- Activate the scaling of replanning modules using an annealing approach rather than fixed rates. -->
		<param name="activateAnnealingModule" value="false" />
	</module>
	<module name="TimeAllocationMutator" >
		<!-- Default:true; Defines whether time mutation changes an activity's duration. -->
		<param name="mutationAffectsDuration" value="true" />
		<!-- Default:1800.0; Defines how many seconds a time mutation can maximally shift a time. -->
		<param name="mutationRange" value="1800.0" />
	</module>
	<module name="changeMode" >
		<!-- Defines whether car availability is considered be considered or not. An agent has no car only if it has no license, or never access to a car. Default: true -->
		<param name="ignoreCarAvailability" value="true" />
		<!-- Defines the mode switch behavior. Possible values [fromAllModesToSpecifiedModes, fromSpecifiedModesToSpecifiedModes] Default: fromSpecifiedModesToSpecifiedModes. -->
		<param name="modeSwitchBehavior" value="fromSpecifiedModesToSpecifiedModes" />
		<!-- Defines all the modes available, including chain-based modes, seperated by commas -->
		<param name="modes" value="car,pt" />
	</module>
	<module name="controler" >
		<!-- Compression algorithm to use when writing out data to files. Possible values: [none, gzip, lz4, zst] -->
		<param name="compressionType" value="gzip" />
		<!-- Sets whether graphs showing some analyses should automatically be generated during the simulation. The generation of graphs usually takes a small amount of time that does not have any weight in big simulations, but add a significant overhead in smaller runs or in test cases where the graphical output is not even requested. -->
		<param name="createGraphs" value="true" />
		<!-- true if at the end of a run, plans, network, config etc should be dumped to a file -->
		<param name="dumpDataAtEnd" value="true" />
		<!-- Default=false. If enabled, the router takes travel times needed for turning moves into account. Cannot be used if the (Fast)AStarLandmarks routing or TravelTimeCalculator.separateModes is enabled. -->
		<param name="enableLinkToLinkRouting" value="false" />
		<!-- Default=xml; Specifies the file format for writing events. Currently supported: [xml, pb, json]
		Multiple values can be specified separated by commas (','). -->
		<param name="eventsFileFormat" value="xml" />
		<!-- Default=0. First Iteration of a simulation. -->
		<param name="firstIteration" value="0" />
		<!-- Default=1000. Last Iteration of a simulation. -->
		<param name="lastIteration" value="10" />
		<!-- Defines which mobility simulation will be used. Currently supported: qsim JDEQSim hermes 
		Depending on the chosen mobsim, you'll have to add additional config modules to configure the corresponding mobsim.
		For 'qsim', add a module 'qsim' to the config. -->
		<param name="mobsim" value="qsim" />
		<param name="outputDirectory" value="/Users/adfil/Documents/MATSim/matsim-example-project/scenarios/testfeldUnterschleissheimPt/plans10000.xml" />
		<!-- Possible values: failIfDirectoryExists, overwriteExistingFiles, deleteDirectoryIfExists -->
		<param name="overwriteFiles" value="deleteDirectoryIfExists" />
		<!-- The type of routing (least cost path) algorithm used, may have the values: [Dijkstra, AStarLandmarks, FastDijkstra, FastAStarLandmarks, SpeedyALT] -->
		<param name="routingAlgorithmType" value="AStarLandmarks" />
		<!-- An identifier for the current run which is used as prefix for output files and mentioned in output xml files etc. -->
		<param name="runId" value="null" />
		<!-- Comma-separated list of visualizer output file formats. `transims', `googleearth', and `otfvis'. -->
		<param name="snapshotFormat" value="" />
		<!-- iterationNumber % writeEventsInterval == 0 defines in which iterations events are written to a file. `0' disables events writing completely. -->
		<param name="writeEventsInterval" value="50" />
		<!-- iterationNumber % writePlansInterval == 0 defines (hopefully) in which iterations plans are written to a file. `0' disables plans writing completely.  Some plans in early iterations are always written -->
		<param name="writePlansInterval" value="50" />
		<!-- iterationNumber % writeSnapshotsInterval == 0 defines in which iterations snapshots are written to a file. `0' disables snapshots writing completely -->
		<param name="writeSnapshotsInterval" value="1" />
		<!-- iterationNumber % writeEventsInterval == 0 defines in which iterations trips CSV are written to a file. `0' disables trips writing completely. -->
		<param name="writeTripsInterval" value="50" />
	</module>
	<module name="counts" >
		<!-- Transport modes that will be respected for the counts comparison. 'car' is default, which includes also bussed from the pt simulation module. Use this parameter in combination with 'filterModes' = true! -->
		<param name="analyzedModes" value="car" />
		<!-- Specifies over how many iterations the link volumes should be averaged that are used for the counts comparison. Use 1 or 0 to only use the link volumes of a single iteration. This values cannot be larger than the value specified for writeCountsInterval -->
		<param name="averageCountsOverIterations" value="5" />
		<!-- factor by which to re-scale the simulated values.  necessary when simulation runs with something different from 100%.  needs to be adapted manually -->
		<param name="countsScaleFactor" value="1.0" />
		<!-- distance to distanceFilterCenterNode to include counting stations. The unit of distance is the Euclidean distance implied by the coordinate system -->
		<param name="distanceFilter" value="null" />
		<!-- node id for center node of distance filter -->
		<param name="distanceFilterCenterNode" value="null" />
		<!-- If true, link counts from legs performed on modes not included in the 'analyzedModes' parameter are ignored. -->
		<param name="filterModes" value="false" />
		<!-- The Coordinates Reference System in which the coordinates are expressed in the input file. At import, the coordinates will be converted to the coordinate system defined in "global", and willbe converted back at export. If not specified, no conversion happens. -->
		<param name="inputCRS" value="null" />
		<!-- input file name to counts package -->
		<param name="inputCountsFile" value="null" />
		<!-- possible values: `html', `kml', `txt', `all' -->
		<param name="outputformat" value="txt" />
		<!-- Specifies how often the counts comparison should be calculated and written. -->
		<param name="writeCountsInterval" value="10" />
	</module>
	<module name="facilities" >
		<!-- This defines how facilities should be created. Possible values: none fromFile setInScenario onePerActivityLinkInPlansFile onePerActivityLinkInPlansFileExceptWhenCoordinatesAreGiven onePerActivityLocationInPlansFile  -->
		<param name="facilitiesSource" value="none" />
		<!-- A prefix to be used for auto-generated IDs. -->
		<param name="idPrefix" value="f_auto_" />
		<!-- The Coordinates Reference System in which the coordinates are expressed in the input file. At import, the coordinates will be converted to the coordinate system defined in "global", and willbe converted back at export. If not specified, no conversion happens. -->
		<param name="inputCRS" value="null" />
		<param name="inputFacilitiesFile" value="null" />
		<param name="inputFacilityAttributesFile" value="null" />
		<param name="insistingOnUsingDeprecatedFacilitiesAttributeFile" value="false" />
	</module>
	<module name="global" >
		<param name="coordinateSystem" value="Atlantis" />
		<param name="defaultDelimiter" value=";" />
		<param name="insistingOnDeprecatedConfigVersion" value="true" />
		<!-- "global" number of threads.  This number is used, e.g., for replanning, but NOT in QSim.  This can typically be set to as many cores as you have available, or possibly even slightly more. -->
		<param name="numberOfThreads" value="2" />
		<param name="randomSeed" value="4711" />
	</module>
	<module name="hermes" >
		<!-- Simulation End Time -->
		<param name="endTime" value="30:00:00" />
		<param name="flowCapacityFactor" value="1.0" />
		<param name="mainMode" value="car" />
		<param name="storageCapacityFactor" value="1.0" />
		<!-- time in seconds.  Time after which the frontmost vehicle on a link is called `stuck' if it does not move. Set to Integer.MAX_VALUE to disable this behavior -->
		<param name="stuckTime" value="10" />
		<!-- treats PT as deterministic. PT vehicles will run with a steady speed. Should be used with separate network layers for PT and other network modes. -->
		<param name="useDeterministicPt" value="false" />
	</module>
	<module name="households" >
		<param name="inputFile" value="null" />
		<param name="inputHouseholdAttributesFile" value="null" />
		<param name="insistingOnUsingDeprecatedHouseholdsAttributeFile" value="false" />
	</module>
	<module name="linkStats" >
		<!-- Specifies over how many iterations the link volumes should be averaged that are used for the link statistics. Use 1 or 0 to only use the link volumes of a single iteration. This values cannot be larger than the value specified for writeLinkStatsInterval -->
		<param name="averageLinkStatsOverIterations" value="5" />
		<!-- Specifies how often the link stats should be calculated and written. Use 0 to disable the generation of link stats. -->
		<param name="writeLinkStatsInterval" value="50" />
	</module>
	<module name="network" >
		<!-- The Coordinates Reference System in which the coordinates are expressed in the input file. At import, the coordinates will be converted to the coordinate system defined in "global", and willbe converted back at export. If not specified, no conversion happens. -->
		<param name="inputCRS" value="null" />
		<param name="inputChangeEventsFile" value="null" />
		<param name="inputNetworkFile" value="/Users/adfil/Documents/MATSim/matsim-example-project/scenarios/testfeldUnterschleissheimPt/network_merged_wgs84.xml" />
		<param name="laneDefinitionsFile" value="null" />
		<param name="timeVariantNetwork" value="false" />
	</module>
	<module name="parallelEventHandling" >
		<!-- Estimated number of events during mobsim run. An optional optimization hint for the framework. -->
		<param name="estimatedNumberOfEvents" value="null" />
		<!-- Size of the events Queue. Increase for very large scenarios -->
		<param name="eventsQueueSize" value="131072" />
		<!-- Number of threads for parallel events handler. _null_ means the framework decides by itself. 0 is currently not possible. -->
		<param name="numberOfThreads" value="null" />
		<!-- If enabled, each event handler is assigned to its own thread. Note that enabling this feature disabled the numberOfThreads option! This feature is still experimental! -->
		<param name="oneThreadPerHandler" value="false" />
		<!-- If enabled, it is ensured that all events that are created during a time step of the mobility simulation are processed before the next time step is simulated. E.g. neccessary when within-day replanning is used. -->
		<param name="synchronizeOnSimSteps" value="true" />
	</module>
	<module name="planCalcScore" >
		<!-- logit model scale parameter. default: 1.  Has name and default value for historical reasons (see Bryan Raney's phd thesis). -->
		<param name="BrainExpBeta" value="1.0" />
		<param name="PathSizeLogitBeta" value="1.0" />
		<!-- fraction of iterations at which MSA score averaging is started. The matsim theory department suggests to use this together with switching off choice set innovation (where a similar switch exists), but it has not been tested yet. -->
		<param name="fractionOfIterationsToStartScoreMSA" value="null" />
		<!-- new_score = (1-learningRate)*old_score + learningRate * score_from_mobsim.  learning rates close to zero emulate score averaging, but slow down initial convergence -->
		<param name="learningRate" value="1.0" />
		<!-- There used to be a plateau between duration=0 and duration=zeroUtilityDuration. This caused durations to evolve to zero once they were below zeroUtilityDuration, causing problems.  Only use this switch if you need to be backwards compatible with some old results.  (changed nov'13) -->
		<param name="usingOldScoringBelowZeroUtilityDuration" value="false" />
		<!-- write a plans file in each iteration directory which contains what each agent actually did, and the score it received. -->
		<param name="writeExperiencedPlans" value="false" />
		<parameterset type="scoringParameters" >
			<param name="earlyDeparture" value="-0.0" />
			<param name="lateArrival" value="-18.0" />
			<param name="marginalUtilityOfMoney" value="1.0" />
			<param name="performing" value="6.0" />
			<param name="subpopulation" value="null" />
			<param name="utilityOfLineSwitch" value="-1.0" />
			<param name="waiting" value="-0.0" />
			<param name="waitingPt" value="-6.0" />
			<parameterset type="activityParams" >
				<param name="activityType" value="dummy" />
				<param name="closingTime" value="undefined" />
				<param name="earliestEndTime" value="undefined" />
				<param name="latestStartTime" value="undefined" />
				<param name="minimalDuration" value="undefined" />
				<param name="openingTime" value="undefined" />
				<param name="priority" value="1.0" />
				<param name="scoringThisActivityAtAll" value="true" />
				<!-- typical duration of activity.  needs to be defined and non-zero.  in sec. -->
				<param name="typicalDuration" value="02:00:00" />
				<!-- method to compute score at typical duration.  Options: | uniform | relative | Use uniform for backwards compatibility (all activities same score; higher proba to drop long acts). -->
				<param name="typicalDurationScoreComputation" value="relative" />
			</parameterset>
			<parameterset type="activityParams" >
				<param name="activityType" value="car interaction" />
				<param name="closingTime" value="undefined" />
				<param name="earliestEndTime" value="undefined" />
				<param name="latestStartTime" value="undefined" />
				<param name="minimalDuration" value="undefined" />
				<param name="openingTime" value="undefined" />
				<param name="priority" value="1.0" />
				<param name="scoringThisActivityAtAll" value="false" />
				<param name="typicalDuration" value="undefined" />
				<param name="typicalDurationScoreComputation" value="relative" />
			</parameterset>
			<parameterset type="activityParams" >
				<param name="activityType" value="pt interaction" />
				<param name="closingTime" value="undefined" />
				<param name="earliestEndTime" value="undefined" />
				<param name="latestStartTime" value="undefined" />
				<param name="minimalDuration" value="undefined" />
				<param name="openingTime" value="undefined" />
				<param name="priority" value="1.0" />
				<param name="scoringThisActivityAtAll" value="false" />
				<param name="typicalDuration" value="undefined" />
				<param name="typicalDurationScoreComputation" value="relative" />
			</parameterset>
			<parameterset type="activityParams" >
				<param name="activityType" value="bike interaction" />
				<param name="closingTime" value="undefined" />
				<param name="earliestEndTime" value="undefined" />
				<param name="latestStartTime" value="undefined" />
				<param name="minimalDuration" value="undefined" />
				<param name="openingTime" value="undefined" />
				<param name="priority" value="1.0" />
				<param name="scoringThisActivityAtAll" value="false" />
				<param name="typicalDuration" value="undefined" />
				<param name="typicalDurationScoreComputation" value="relative" />
			</parameterset>
			<parameterset type="activityParams" >
				<param name="activityType" value="drt interaction" />
				<param name="closingTime" value="undefined" />
				<param name="earliestEndTime" value="undefined" />
				<param name="latestStartTime" value="undefined" />
				<param name="minimalDuration" value="undefined" />
				<param name="openingTime" value="undefined" />
				<param name="priority" value="1.0" />
				<param name="scoringThisActivityAtAll" value="false" />
				<param name="typicalDuration" value="undefined" />
				<param name="typicalDurationScoreComputation" value="relative" />
			</parameterset>
			<parameterset type="activityParams" >
				<param name="activityType" value="taxi interaction" />
				<param name="closingTime" value="undefined" />
				<param name="earliestEndTime" value="undefined" />
				<param name="latestStartTime" value="undefined" />
				<param name="minimalDuration" value="undefined" />
				<param name="openingTime" value="undefined" />
				<param name="priority" value="1.0" />
				<param name="scoringThisActivityAtAll" value="false" />
				<param name="typicalDuration" value="undefined" />
				<param name="typicalDurationScoreComputation" value="relative" />
			</parameterset>
			<parameterset type="activityParams" >
				<param name="activityType" value="other interaction" />
				<param name="closingTime" value="undefined" />
				<param name="earliestEndTime" value="undefined" />
				<param name="latestStartTime" value="undefined" />
				<param name="minimalDuration" value="undefined" />
				<param name="openingTime" value="undefined" />
				<param name="priority" value="1.0" />
				<param name="scoringThisActivityAtAll" value="false" />
				<param name="typicalDuration" value="undefined" />
				<param name="typicalDurationScoreComputation" value="relative" />
			</parameterset>
			<parameterset type="activityParams" >
				<param name="activityType" value="walk interaction" />
				<param name="closingTime" value="undefined" />
				<param name="earliestEndTime" value="undefined" />
				<param name="latestStartTime" value="undefined" />
				<param name="minimalDuration" value="undefined" />
				<param name="openingTime" value="undefined" />
				<param name="priority" value="1.0" />
				<param name="scoringThisActivityAtAll" value="false" />
				<param name="typicalDuration" value="undefined" />
				<param name="typicalDurationScoreComputation" value="relative" />
			</parameterset>
			<parameterset type="activityParams" >
				<param name="activityType" value="home" />
				<param name="closingTime" value="undefined" />
				<param name="earliestEndTime" value="undefined" />
				<param name="latestStartTime" value="undefined" />
				<param name="minimalDuration" value="08:00:00" />
				<param name="openingTime" value="undefined" />
				<param name="priority" value="1.0" />
				<param name="scoringThisActivityAtAll" value="true" />
				<param name="typicalDuration" value="12:00:00" />
				<param name="typicalDurationScoreComputation" value="relative" />
			</parameterset>
			<parameterset type="activityParams" >
				<param name="activityType" value="work" />
				<param name="closingTime" value="18:00:00" />
				<param name="earliestEndTime" value="15:00:00" />
				<param name="latestStartTime" value="09:00:00" />
				<param name="minimalDuration" value="06:00:00" />
				<param name="openingTime" value="07:00:00" />
				<param name="priority" value="1.0" />
				<param name="scoringThisActivityAtAll" value="true" />
				<param name="typicalDuration" value="08:00:00" />
				<param name="typicalDurationScoreComputation" value="relative" />
			</parameterset>
			<parameterset type="activityParams" >
				<param name="activityType" value="ride interaction" />
				<param name="closingTime" value="undefined" />
				<param name="earliestEndTime" value="undefined" />
				<param name="latestStartTime" value="undefined" />
				<param name="minimalDuration" value="undefined" />
				<param name="openingTime" value="undefined" />
				<param name="priority" value="1.0" />
				<param name="scoringThisActivityAtAll" value="false" />
				<param name="typicalDuration" value="undefined" />
				<param name="typicalDurationScoreComputation" value="relative" />
			</parameterset>
			<parameterset type="modeParams" >
				<!-- [utils] alternative-specific constant.  Normally per trip, but that is probably buggy for multi-leg trips. -->
				<param name="constant" value="0.0" />
				<!-- [unit_of_money/day] Fixed cost of mode, per day. -->
				<param name="dailyMonetaryConstant" value="0.0" />
				<!-- [utils] daily utility constant. default=0 to be backwards compatible -->
				<param name="dailyUtilityConstant" value="0.0" />
				<!-- [utils/m] utility of traveling (e.g. walking or driving) per m, normally negative.  this is on top of the time (dis)utility. -->
				<param name="marginalUtilityOfDistance_util_m" value="0.0" />
				<!-- [utils/hr] additional marginal utility of traveling.  normally negative.  this comes on top of the opportunity cost of time -->
				<param name="marginalUtilityOfTraveling_util_hr" value="-6.0" />
				<param name="mode" value="car" />
				<!-- [unit_of_money/m] conversion of distance into money. Normally negative. -->
				<param name="monetaryDistanceRate" value="0.0" />
			</parameterset>
			<parameterset type="modeParams" >
				<param name="constant" value="0.0" />
				<param name="dailyMonetaryConstant" value="0.0" />
				<param name="dailyUtilityConstant" value="0.0" />
				<param name="marginalUtilityOfDistance_util_m" value="0.0" />
				<param name="marginalUtilityOfTraveling_util_hr" value="-6.0" />
				<param name="mode" value="pt" />
				<param name="monetaryDistanceRate" value="0.0" />
			</parameterset>
			<parameterset type="modeParams" >
				<param name="constant" value="0.0" />
				<param name="dailyMonetaryConstant" value="0.0" />
				<param name="dailyUtilityConstant" value="0.0" />
				<param name="marginalUtilityOfDistance_util_m" value="0.0" />
				<param name="marginalUtilityOfTraveling_util_hr" value="-6.0" />
				<param name="mode" value="walk" />
				<param name="monetaryDistanceRate" value="0.0" />
			</parameterset>
			<parameterset type="modeParams" >
				<param name="constant" value="0.0" />
				<param name="dailyMonetaryConstant" value="0.0" />
				<param name="dailyUtilityConstant" value="0.0" />
				<param name="marginalUtilityOfDistance_util_m" value="0.0" />
				<param name="marginalUtilityOfTraveling_util_hr" value="-6.0" />
				<param name="mode" value="bike" />
				<param name="monetaryDistanceRate" value="0.0" />
			</parameterset>
			<parameterset type="modeParams" >
				<param name="constant" value="0.0" />
				<param name="dailyMonetaryConstant" value="0.0" />
				<param name="dailyUtilityConstant" value="0.0" />
				<param name="marginalUtilityOfDistance_util_m" value="0.0" />
				<param name="marginalUtilityOfTraveling_util_hr" value="-6.0" />
				<param name="mode" value="ride" />
				<param name="monetaryDistanceRate" value="0.0" />
			</parameterset>
			<parameterset type="modeParams" >
				<param name="constant" value="0.0" />
				<param name="dailyMonetaryConstant" value="0.0" />
				<param name="dailyUtilityConstant" value="0.0" />
				<param name="marginalUtilityOfDistance_util_m" value="0.0" />
				<param name="marginalUtilityOfTraveling_util_hr" value="-6.0" />
				<param name="mode" value="other" />
				<param name="monetaryDistanceRate" value="0.0" />
			</parameterset>
		</parameterset>
	</module>
	<module name="plans" >
		<!-- String: minOfDurationAndEndTime tryEndTimeThenDuration endTimeOnly. Anything besides minOfDurationAndEndTime will internally use a different (simpler) version of the TimeAllocationMutator. -->
		<param name="activityDurationInterpretation" value="tryEndTimeThenDuration" />
		<!-- Possible values: reject, useMainModeIdentifier -->
		<param name="handlingOfPlansWithoutRoutingMode" value="reject" />
		<!-- The Coordinates Reference System in which the coordinates are expressed in the input file. At import, the coordinates will be converted to the coordinate system defined in "global", and willbe converted back at export. If not specified, no conversion happens. -->
		<param name="inputCRS" value="null" />
		<param name="inputPersonAttributesFile" value="null" />
		<param name="inputPlansFile" value="plans_10000.xml" />
		<param name="insistingOnUsingDeprecatedPersonAttributeFile" value="false" />
		<!-- Defines how routes are stored in memory. Currently supported: LinkNetworkRoute, CompressedNetworkRoute. -->
		<param name="networkRouteType" value="LinkNetworkRoute" />
		<!-- (not tested) will remove plan attributes that are presumably not used, such as activityStartTime. default=false. Use with Caution! -->
		<param name="removingUnnecessaryPlanAttributes" value="false" />
		<!-- Defines how departure times are interpreted in rerouting applications. If set to 'ignoreDelays', the departure time of a trip when routing along a plan will always be the nominal (plan-based) activity end time. If set to 'shiftActivityEndTimes', routing along a plan will accumulate travel times and shift activity end times if necessary -->
		<param name="tripDurationHandling" value="ignoreDelays" />
	</module>
	<module name="planscalcroute" >
		<!-- Defines how access and egress to main mode is simulated. Either of [none, accessEgressModeToLink, walkConstantTimeToLink, accessEgressModeToLinkPlusTimeConstant], Current default=none which means no access or egress trips are simulated. -->
		<param name="accessEgressType" value="none" />
		<!-- Some typical teleportation routing params are set by default, such as for walk and bike.  Setting this switch to "true" will clear them.  Note that this will also clear settings for helper modes such as for non_network_walk -->
		<param name="clearDefaultTeleportedModeParams" value="false" />
		<!-- All the modes for which the router is supposed to generate network routes (like car) -->
		<param name="networkModes" value="car" />
		<!-- strength of the randomness for the utility of money in routing under toll.  Leads to Pareto-optimal route with randomly drawn money-vs-other-attributes tradeoff. Technically the width parameter of a log-normal distribution. 3.0 seems to be a good value.  -->
		<param name="routingRandomness" value="3.0" />
		<parameterset type="teleportedModeParameters" >
			<param name="beelineDistanceFactor" value="1.3" />
			<param name="mode" value="bike" />
			<!-- Free-speed factor for a teleported mode. Travel time = teleportedModeFreespeedFactor * <freespeed car travel time>. Insert a line like this for every such mode. Please do not set teleportedModeFreespeedFactor as well as teleportedModeSpeed for the same mode, but if you do, +teleportedModeFreespeedFactor wins over teleportedModeSpeed. -->
			<param name="teleportedModeFreespeedFactor" value="null" />
			<!-- Speed for a teleported mode. Travel time = (<beeline distance> * beelineDistanceFactor) / teleportedModeSpeed. Insert a line like this for every such mode. -->
			<param name="teleportedModeSpeed" value="4.166666666666667" />
		</parameterset>
		<parameterset type="teleportedModeParameters" >
			<param name="beelineDistanceFactor" value="1.3" />
			<param name="mode" value="walk" />
			<param name="teleportedModeFreespeedFactor" value="null" />
			<param name="teleportedModeSpeed" value="0.8333333333333333" />
		</parameterset>
		<parameterset type="teleportedModeParameters" >
			<param name="beelineDistanceFactor" value="1.3" />
			<param name="mode" value="non_network_walk" />
			<param name="teleportedModeFreespeedFactor" value="null" />
			<param name="teleportedModeSpeed" value="0.8333333333333333" />
		</parameterset>
		<parameterset type="teleportedModeParameters" >
			<param name="beelineDistanceFactor" value="1.3" />
			<param name="mode" value="ride" />
			<param name="teleportedModeFreespeedFactor" value="1.0" />
			<param name="teleportedModeSpeed" value="null" />
		</parameterset>
		<parameterset type="teleportedModeParameters" >
			<param name="beelineDistanceFactor" value="1.3" />
			<param name="mode" value="pt" />
			<param name="teleportedModeFreespeedFactor" value="2.0" />
			<param name="teleportedModeSpeed" value="null" />
		</parameterset>
	</module>
	<module name="ptCounts" >
		<!-- factor by which to re-scale the simulated values.  necessary when simulation runs with something different from 100%.  needs to be adapted manually -->
		<param name="countsScaleFactor" value="1.0" />
		<!-- distance to distanceFilterCenterNode to include counting stations. The unit of distance is the Euclidean distance implied by the coordinate system -->
		<param name="distanceFilter" value="null" />
		<!-- node id for center node of distance filter -->
		<param name="distanceFilterCenterNode" value="null" />
		<!-- input file containing the alighting (getting off) counts for pt -->
		<param name="inputAlightCountsFile" value="null" />
		<!-- input file containing the boarding (getting on) counts for pt -->
		<param name="inputBoardCountsFile" value="null" />
		<!-- input file containing the occupancy counts for pt -->
		<param name="inputOccupancyCountsFile" value="null" />
		<!-- possible values: `html', `kml', `txt', `all' -->
		<param name="outputformat" value="null" />
		<!-- every how many iterations (starting with 0) counts comparisons are generated -->
		<param name="ptCountsInterval" value="10" />
	</module>
	<module name="qsim" >
		<param name="endTime" value="30:00:00" />
		<!-- If set to withLinkAttributes snapshots will only be generated for links which include generateSnapshotForLink as attribute key. Default is no filtering. -->
		<param name="filterSnapshots" value="no" />
		<param name="flowCapacityFactor" value="1.0" />
		<!-- decides if waiting vehicles enter the network after or before the already driving vehicles were moved. Default: false -->
		<param name="insertingWaitingVehiclesBeforeDrivingVehicles" value="true" />
		<!-- If link dynamics is set as SeepageQ, set to false if all seep modes should perform seepage. Default is true (better option). -->
		<param name="isRestrictingSeepage" value="true" />
		<!-- If link dynamics is set as SeepageQ, set to true if seep mode do not consumes any space on the link. Default is false. -->
		<param name="isSeepModeStorageFree" value="false" />
		<!-- default: FIFO; options: FIFO PassingQ SeepageQ -->
		<param name="linkDynamics" value="FIFO" />
		<!-- The (initial) width of the links of the network. Use positive floating point values. This is used only for visualisation. -->
		<param name="linkWidth" value="30.0" />
		<!-- [comma-separated list] Defines which modes are congested modes. Technically, these are the modes that the departure handler of the netsimengine handles.  Effective cell size, effective lane width, flow capacity factor, and storage capacity factor need to be set with diligence.  Need to be vehicular modes to make sense. -->
		<param name="mainMode" value="car" />
		<!-- Shortens a link in the visualization, i.e. its start and end point are moved into towards the center. Does not affect traffic flow.  -->
		<param name="nodeOffset" value="0.0" />
		<!-- Number of threads used for the QSim.  Note that this setting is independent from the "global" threads setting.  In contrast to earlier versions, the non-parallel special version is no longer there. -->
		<param name="numberOfThreads" value="1" />
		<!-- Boolean. `true': stuck vehicles are removed, aborting the plan; `false': stuck vehicles are forced into the next link. `false' is probably the better choice. -->
		<param name="removeStuckVehicles" value="false" />
		<!-- If link dynamics is set as SeepageQ, set a seep mode. Default is bike. -->
		<param name="seepMode" value="bike" />
		<!-- Possible values: minOfEndtimeAndMobsimFinished, onlyUseEndtime -->
		<param name="simEndtimeInterpretation" value="null" />
		<!-- Options: maxOfStarttimeAndEarliestActivityEnd onlyUseStarttime  -->
		<param name="simStarttimeInterpretation" value="maxOfStarttimeAndEarliestActivityEnd" />
		<!-- snapshotStyle. One of: equiDist queue withHoles withHolesAndShowHoles kinematicWaves  -->
		<param name="snapshotStyle" value="equiDist" />
		<param name="snapshotperiod" value="00:00:00" />
		<param name="startTime" value="00:00:00" />
		<param name="storageCapacityFactor" value="1.0" />
		<!-- time in seconds.  Time after which the frontmost vehicle on a link is called `stuck' if it does not move. -->
		<param name="stuckTime" value="10.0" />
		<param name="timeStepSize" value="00:00:01" />
		<!-- options: queue withHoles kinematicWaves  -->
		<param name="trafficDynamics" value="queue" />
		<!-- Set this parameter to true if lanes should be used, false if not. -->
		<param name="useLanes" value="false" />
		<!-- If a route does not reference a vehicle, agents will use the vehicle with the same id as their own. -->
		<param name="usePersonIdForMissingVehicleId" value="true" />
		<!-- If false, the qsim accumulates fractional flows up to one flow unit in every time step.  If true, flows are updated only if an agent wants to enter the link or an agent is added to buffer. Default is true. -->
		<param name="usingFastCapacityUpdate" value="true" />
		<!-- Defines what happens if an agent wants to depart, but the specified vehicle is not available. One of: teleport wait exception  -->
		<param name="vehicleBehavior" value="teleport" />
		<!-- If vehicles should all be the same default vehicle, or come from the vehicles file, or something else.  Possible values:  defaultVehicle modeVehicleTypesFromVehiclesData fromVehiclesData -->
		<param name="vehiclesSource" value="defaultVehicle" />
	</module>
	<module name="strategy" >
		<!-- the external executable will be called with a config file as argument.  This is the pathname to a possible skeleton config, to which additional information will be added.  Can be null. -->
		<param name="ExternalExeConfigTemplate" value="null" />
		<!-- time out value (in seconds) after which matsim will consider the external strategy as failed -->
		<param name="ExternalExeTimeOut" value="3600" />
		<!-- root directory for temporary files generated by the external executable. Provided as a service; I don't think this is used by MATSim. -->
		<param name="ExternalExeTmpFileRootDir" value="null" />
		<!-- fraction of iterations where innovative strategies are switched off.  Something like 0.8 should be good.  E.g. if you run from iteration 400 to iteration 500, innovation is switched off at iteration 480 -->
		<param name="fractionOfIterationsToDisableInnovation" value="Infinity" />
		<!-- maximum number of plans per agent.  ``0'' means ``infinity''.  Currently (2010), ``5'' is a good number -->
		<param name="maxAgentPlanMemorySize" value="5" />
		<!-- strategyName of PlanSelector for plans removal.  Possible defaults: WorstPlanSelector SelectRandom SelectExpBetaForRemoval ChangeExpBetaForRemoval PathSizeLogitSelectorForRemoval . The current default, WorstPlanSelector is not a good choice from a discrete choice theoretical perspective. Alternatives, however, have not been systematically tested. kai, feb'12 -->
		<param name="planSelectorForRemoval" value="WorstPlanSelector" />
		<parameterset type="strategysettings" >
			<!-- iteration after which strategy will be disabled.  most useful for ``innovative'' strategies (new routes, new times, ...). Normally, better use fractionOfIterationsToDisableInnovation -->
			<param name="disableAfterIteration" value="-1" />
			<!-- path to external executable (if applicable) -->
			<param name="executionPath" value="null" />
			<!-- strategyName of strategy.  Possible default names: SelectRandom BestScore KeepLastSelected ChangeExpBeta SelectExpBeta SelectPathSizeLogit      (selectors), ReRouteTimeAllocationMutatorTimeAllocationMutator_ReRouteChangeSingleTripModeChangeTripModeSubtourModeChoice (innovative strategies). -->
			<param name="strategyName" value="SelectRandom" />
			<!-- subpopulation to which the strategy applies. "null" refers to the default population, that is, the set of persons for which no explicit subpopulation is defined (ie no subpopulation attribute) -->
			<param name="subpopulation" value="null" />
			<!-- weight of a strategy: for each agent, a strategy will be selected with a probability proportional to its weight -->
			<param name="weight" value="0.9" />
		</parameterset>
		<parameterset type="strategysettings" >
			<param name="disableAfterIteration" value="-1" />
			<param name="executionPath" value="null" />
			<param name="strategyName" value="ReRoute" />
			<param name="subpopulation" value="null" />
			<param name="weight" value="0.1" />
		</parameterset>
	</module>
	<module name="subtourModeChoice" >
		<!-- Only for backwards compatibility.  Defines if only trips from modes list should change mode, or all trips.  Options: fromAllModesToSpecifiedModes fromSpecifiedModesToSpecifiedModes  -->
		<param name="behavior" value="fromSpecifiedModesToSpecifiedModes" />
		<!-- Defines the chain-based modes, seperated by commas -->
		<param name="chainBasedModes" value="car,bike" />
		<!-- Defines whether car availability must be considered or not. A agent has no car only if it has no license, or never access to a car -->
		<param name="considerCarAvailability" value="false" />
		<!-- Defines all the modes available, including chain-based modes, seperated by commas -->
		<param name="modes" value="car,pt,bike,walk" />
	</module>
	<module name="transit" >
		<!-- The Coordinates Reference System in which the coordinates are expressed in the input file. At import, the coordinates will be converted to the coordinate system defined in "global", and willbe converted back at export. If not specified, no conversion happens. -->
		<param name="inputScheduleCRS" value="null" />
		<param name="insistingOnUsingDeprecatedAttributeFiles" value="false" />
		<!-- The type of transit routing algorithm used, may have the values: [DijkstraBased, SwissRailRaptor] -->
		<param name="routingAlgorithmType" value="SwissRailRaptor" />
		<!-- Optional input file containing additional attributes for transit lines, stored as ObjectAttributes. -->
		<param name="transitLinesAttributesFile" value="null" />
		<!-- Comma-separated list of transportation modes that are handled as transit. Defaults to 'pt'. -->
		<param name="transitModes" value="pt" />
		<!-- Input file containing the transit schedule to be simulated. -->
		<param name="transitScheduleFile" value="null" />
		<!-- Optional input file containing additional attributes for transit stop facilities, stored as ObjectAttributes. -->
		<param name="transitStopsAttributesFile" value="null" />
		<!-- Set this parameter to true if transit should be simulated, false if not. -->
		<param name="useTransit" value="false" />
		<param name="usingTransitInMobsim" value="true" />
		<!-- Input file containing the vehicles used by the departures in the transit schedule. -->
		<param name="vehiclesFile" value="null" />
	</module>
	<module name="transitRouter" >
		<!-- additional time the router allocates when a line switch happens. Can be interpreted as a 'safety' time that agents need to safely transfer from one line to another -->
		<param name="additionalTransferTime" value="0.0" />
		<!-- Factor with which direct walk generalized cost is multiplied before it is compared to the pt generalized cost.  Set to a very high value to reduce direct walk results. -->
		<param name="directWalkFactor" value="1.0" />
		<!-- step size to increase searchRadius if no stops are found -->
		<param name="extensionRadius" value="200.0" />
		<!-- maximum beeline distance between stops that agents could transfer to by walking -->
		<param name="maxBeelineWalkConnectionDistance" value="100.0" />
		<!-- the radius in which stop locations are searched, given a start or target coordinate -->
		<param name="searchRadius" value="1000.0" />
	</module>
	<module name="travelTimeCalculator" >
		<!-- (only for backwards compatibility; only used if separateModes==false && + filterModes==true)  Transport modes that will be respected by the travel time collector. 'car' is default which includes also buses from the pt simulation module. -->
		<param name="analyzedModes" value="car" />
		<param name="calculateLinkToLinkTravelTimes" value="false" />
		<param name="calculateLinkTravelTimes" value="true" />
		<!-- (only for backwards compatiblity; only used if separateModes==false)  Only modes included in analyzedModes are included. -->
		<param name="filterModes" value="false" />
		<!-- The lenght (in sec) of the time period that is splited into time bins; an additional time bin is created to aggregate all travel times collected after maxTime -->
		<param name="maxTime" value="108000" />
		<!-- (only for backwards compatibility) If false, link travel times are measured and aggregated over all vehicles using the link. -->
		<param name="separateModes" value="true" />
		<!-- How to deal with congested time bins that have no link entry events. `optimistic' assumes free speed (too optimistic); 'experimental_LastMile' is experimental and probably too pessimistic. -->
		<param name="travelTimeAggregator" value="optimistic" />
		<!-- The size of the time bin (in sec) into which the link travel times are aggregated for the router -->
		<param name="travelTimeBinSize" value="900" />
		<!-- possible values: TravelTimeCalculatorArray TravelTimeCalculatorHashMap  -->
		<param name="travelTimeCalculator" value="TravelTimeCalculatorArray" />
		<!-- How to deal with link entry times at different positions during the time bin. Currently supported: average, linearinterpolation -->
		<param name="travelTimeGetter" value="average" />
	</module>
	<module name="vehicles" >
		<param name="vehiclesFile" value="null" />
	</module>
	<module name="vspExperimental" >
		<!-- (do not use except of you have to) There was a problem with pt interaction scoring.  Some people solved it by overwriting the parameters of the pt interaction activity type.  Doing this now throws an Exception.  If you still insist on doing this, set the following to true. -->
		<param name="isAbleToOverwritePtInteractionParams" value="false" />
		<param name="isGeneratingBoardingDeniedEvent" value="false" />
		<!-- if an approximation of the opportunity cost of time is included into the radius calculation for location choice.`true' will be faster, but it is an approximation.  Default is `true'; `false' is available for backwards compatibility. -->
		<param name="isUsingOpportunityCostOfTimeForLocationChoice" value="true" />
		<param name="logitScaleParamForPlansRemoval" value="1.0" />
		<!-- Options: | ignore | info | warn | abort | .  When violating VSP defaults, this results in nothing, logfile infos, logfile warnings, or aborts.  Members of VSP should use `abort' or talk to kai. -->
		<param name="vspDefaultsCheckingLevel" value="ignore" />
		<!-- if true then writes output_events in output directory.  default is `false'. Will only work when lastIteration is multiple of events writing interval -->
		<param name="writingOutputEvents" value="true" />
	</module>

</config>

2022-08-12T16:23:02,989  INFO ControlerUtils:84 Complete config dump done.
2022-08-12T16:23:02,989  INFO ControlerUtils:85 Checking consistency of config...
2022-08-12T16:23:02,989  INFO VspConfigConsistencyCheckerImpl:63 NOT running vsp config consistency check because vsp defaults checking level is set to IGNORE
2022-08-12T16:23:02,997  INFO ControlerUtils:87 Checking consistency of config done.
2022-08-12T16:23:03,002  WARN PrepareForSimImpl:220 'usePersonIdForMissingVehicleId' is deprecated. It will be removed soon.
2022-08-12T16:23:03,008  INFO Counter:69 [VehiclesImpl] added vehicle # 1
2022-08-12T16:23:03,008  INFO Counter:69 [VehiclesImpl] added vehicle # 2
2022-08-12T16:23:03,009  INFO Counter:69 [VehiclesImpl] added vehicle # 4
2022-08-12T16:23:03,009  INFO Counter:69 [VehiclesImpl] added vehicle # 8
2022-08-12T16:23:03,009  INFO Counter:69 [VehiclesImpl] added vehicle # 16
2022-08-12T16:23:03,010  INFO Counter:69 [VehiclesImpl] added vehicle # 32
2022-08-12T16:23:03,011  INFO Counter:69 [VehiclesImpl] added vehicle # 64
2022-08-12T16:23:03,016  INFO Counter:69 [VehiclesImpl] added vehicle # 128
2022-08-12T16:23:03,019  INFO Counter:69 [VehiclesImpl] added vehicle # 256
2022-08-12T16:23:03,026  INFO Counter:69 [VehiclesImpl] added vehicle # 512
2022-08-12T16:23:03,035  INFO Counter:69 [VehiclesImpl] added vehicle # 1024
2022-08-12T16:23:03,042  INFO Counter:69 [VehiclesImpl] added vehicle # 2048
2022-08-12T16:23:03,052  INFO Counter:69 [VehiclesImpl] added vehicle # 4096
2022-08-12T16:23:03,071  INFO Counter:69 [VehiclesImpl] added vehicle # 8192
2022-08-12T16:23:03,452  INFO PreProcessDijkstra:118 nodes in dead ends: 763 (total nodes: 8642). Done in 56 ms
2022-08-12T16:23:03,465  INFO PreProcessLandmarks:112 Putting landmarks on network...
2022-08-12T16:23:03,473  INFO LandmarkerPieSlices:96 Filling sectors...
2022-08-12T16:23:03,506  INFO LandmarkerPieSlices:107 Refining landmarks...
2022-08-12T16:23:03,508  INFO LandmarkerPieSlices:109 done
2022-08-12T16:23:03,509  INFO PreProcessLandmarks:115 done in 43 ms
2022-08-12T16:23:03,510  INFO PreProcessLandmarks:117 Initializing landmarks data
2022-08-12T16:23:03,517  INFO PreProcessLandmarks:129 Calculating distance from each node to each of the 16 landmarks using 2 threads...
2022-08-12T16:23:03,525  INFO PreProcessLandmarks:139 wait for landmarks Calculator to finish...
2022-08-12T16:23:03,996  INFO PreProcessLandmarks:163 done in 477 ms
2022-08-12T16:23:04,012  INFO NetworkImpl:163  node # 1
2022-08-12T16:23:04,012  INFO NetworkImpl:163  node # 4
2022-08-12T16:23:04,013  INFO NetworkImpl:163  node # 16
2022-08-12T16:23:04,013  INFO NetworkImpl:163  node # 64
2022-08-12T16:23:04,013  INFO NetworkImpl:163  node # 256
2022-08-12T16:23:04,015  INFO NetworkImpl:163  node # 1024
2022-08-12T16:23:04,019  INFO NetworkImpl:163  node # 4096
2022-08-12T16:23:04,025  INFO NetworkImpl:159  link # 1
2022-08-12T16:23:04,026  INFO NetworkImpl:159  link # 4
2022-08-12T16:23:04,026  INFO NetworkImpl:159  link # 16
2022-08-12T16:23:04,026  INFO NetworkImpl:159  link # 64
2022-08-12T16:23:04,029  INFO NetworkImpl:159  link # 256
2022-08-12T16:23:04,034  INFO NetworkImpl:159  link # 1024
2022-08-12T16:23:04,049  INFO NetworkImpl:159  link # 4096
2022-08-12T16:23:04,075  WARN RandomizingTimeDistanceTravelDisutilityFactory:112 There will be no routing randomness. The randomization of the travel disutility requires the monetary distance rate to be different than zero. Continuing anyway.
2022-08-12T16:23:04,075  WARN RandomizingTimeDistanceTravelDisutilityFactory:117 There will be no routing randomness. The randomization of the travel disutility requires the travel time cost rate to be different than zero. Continuing anyway.
2022-08-12T16:23:04,077  INFO RandomizingTimeDistanceTravelDisutilityFactory:85  sigma: 3.0; resulting normalization: 0.011108996538242306
2022-08-12T16:23:04,091  INFO PreProcessDijkstra:118 nodes in dead ends: 723 (total nodes: 2020). Done in 11 ms
2022-08-12T16:23:04,096  INFO PreProcessLandmarks:112 Putting landmarks on network...
2022-08-12T16:23:04,097  INFO LandmarkerPieSlices:96 Filling sectors...
2022-08-12T16:23:04,103  INFO LandmarkerPieSlices:107 Refining landmarks...
2022-08-12T16:23:04,103  INFO LandmarkerPieSlices:109 done
2022-08-12T16:23:04,103  INFO PreProcessLandmarks:115 done in 7 ms
2022-08-12T16:23:04,103  INFO PreProcessLandmarks:117 Initializing landmarks data
2022-08-12T16:23:04,105  INFO PreProcessLandmarks:129 Calculating distance from each node to each of the 16 landmarks using 2 threads...
2022-08-12T16:23:04,106  INFO PreProcessLandmarks:139 wait for landmarks Calculator to finish...
2022-08-12T16:23:04,345  INFO PreProcessLandmarks:163 done in 239 ms
2022-08-12T16:23:04,358  INFO RandomizingTimeDistanceTravelDisutilityFactory:85  sigma: 3.0; resulting normalization: 0.011108996538242306
2022-08-12T16:23:04,373  INFO NetworkImpl:422 building QuadTree for nodes: xrange(9.9765773402543,13.2729361269476); yrange(46.7410778270886,49.649323180728)
2022-08-12T16:23:04,435  INFO NetworkImpl:431 Building QuadTree took 0.066 seconds.
2022-08-12T16:23:04,464  INFO Counter:69 [PersonPrepareForSim] handled person # 1
2022-08-12T16:23:04,482  INFO Counter:69 [PersonPrepareForSim] handled person # 2
2022-08-12T16:23:04,484  INFO Counter:69 [PersonPrepareForSim] handled person # 4
2022-08-12T16:23:04,491  INFO Counter:69 [PersonPrepareForSim] handled person # 8
2022-08-12T16:23:04,493  INFO NetworkImpl:422 building QuadTree for nodes: xrange(10.5446156,12.6109164); yrange(47.2661533,49.3004814)
2022-08-12T16:23:04,519  INFO NetworkImpl:431 Building QuadTree took 0.027 seconds.
2022-08-12T16:23:04,527  INFO Counter:69 [PersonPrepareForSim] handled person # 16
2022-08-12T16:23:04,552  INFO Counter:69 [PersonPrepareForSim] handled person # 32
2022-08-12T16:23:04,682  INFO Counter:69 [PersonPrepareForSim] handled person # 64
2022-08-12T16:23:04,766  INFO Counter:69 [PersonPrepareForSim] handled person # 128
2022-08-12T16:23:04,917  INFO Counter:69 [PersonPrepareForSim] handled person # 256
2022-08-12T16:23:05,186  INFO Counter:69 [PersonPrepareForSim] handled person # 512
2022-08-12T16:23:05,550  INFO Counter:69 [PersonPrepareForSim] handled person # 1024
2022-08-12T16:23:06,063  INFO Counter:69 [PersonPrepareForSim] handled person # 2048
2022-08-12T16:23:06,783  INFO Counter:69 [PersonPrepareForSim] handled person # 4096
2022-08-12T16:23:07,902  INFO Counter:69 [PersonPrepareForSim] handled person # 8192
2022-08-12T16:23:08,419  INFO Counter:74 [PersonPrepareForSim] handled person # 10000
2022-08-12T16:23:08,427  INFO AbstractController:133 ###################################################
2022-08-12T16:23:08,428  INFO AbstractController:134 ### ITERATION 0 BEGINS
2022-08-12T16:23:08,430  INFO ControlerListenerManagerImpl:145 calling notifyIterationStarts on org.matsim.analysis.LegHistogramListener
2022-08-12T16:23:08,430  INFO ControlerListenerManagerImpl:145 calling notifyIterationStarts on org.matsim.analysis.LinkStatsControlerListener
2022-08-12T16:23:08,430  INFO ControlerListenerManagerImpl:145 calling notifyIterationStarts on org.matsim.core.replanning.ReplanningContextImpl
2022-08-12T16:23:08,430  INFO ControlerListenerManagerImpl:145 calling notifyIterationStarts on org.matsim.core.scoring.ScoringFunctionsForPopulation$$Lambda$199/0x0000000801413840
2022-08-12T16:23:08,507  INFO ControlerListenerManagerImpl:145 calling notifyIterationStarts on org.matsim.core.scoring.ExperiencedPlansServiceImpl$1
2022-08-12T16:23:08,510  INFO ControlerListenerManagerImpl:148 [it.0] all ControlerIterationStartsListeners called.
2022-08-12T16:23:08,511  INFO ControlerListenerManagerImpl:224 calling notifyBeforeMobsim on org.matsim.core.controler.corelisteners.EventsHandlingImpl
2022-08-12T16:23:08,511  INFO EventsManagerImpl:190 resetting Event-Handlers
2022-08-12T16:23:08,511  INFO EventsManagerImpl:197   org.matsim.core.trafficmonitoring.TravelTimeCalculator
2022-08-12T16:23:08,514  INFO EventsManagerImpl:197   org.matsim.analysis.VolumesAnalyzer
2022-08-12T16:23:08,514  INFO EventsManagerImpl:197   org.matsim.core.scoring.ScoringFunctionsForPopulation
2022-08-12T16:23:08,515  INFO EventsManagerImpl:197   org.matsim.analysis.LegHistogram
2022-08-12T16:23:08,515  INFO EventsManagerImpl:197   org.matsim.analysis.CalcLegTimes
2022-08-12T16:23:08,520  INFO EventsManagerImpl:160 adding Event-Handler: org.matsim.core.events.algorithms.EventWriterXML
2022-08-12T16:23:08,520  INFO EventsManagerImpl:166   org.matsim.core.events.algorithms.EventWriter
2022-08-12T16:23:08,520  INFO EventsManagerImpl:166   org.matsim.core.events.handler.BasicEventHandler
2022-08-12T16:23:08,520  INFO EventsManagerImpl:227     > org.matsim.api.core.v01.events.Event
2022-08-12T16:23:08,521  INFO EventsManagerImpl:176 
2022-08-12T16:23:08,521  INFO EventsManagerImpl:160 adding Event-Handler: org.matsim.core.events.algorithms.EventWriterXML
2022-08-12T16:23:08,521  INFO EventsManagerImpl:166   org.matsim.core.events.algorithms.EventWriter
2022-08-12T16:23:08,521  INFO EventsManagerImpl:166   org.matsim.core.events.handler.BasicEventHandler
2022-08-12T16:23:08,521  INFO EventsManagerImpl:227     > org.matsim.api.core.v01.events.Event
2022-08-12T16:23:08,521  INFO EventsManagerImpl:176 
2022-08-12T16:23:08,521  INFO ControlerListenerManagerImpl:224 calling notifyBeforeMobsim on org.matsim.core.controler.corelisteners.PlansDumpingImpl
2022-08-12T16:23:08,521  INFO PlansDumpingImpl:76 dumping plans...
2022-08-12T16:23:08,550  INFO Counter:69 [PopulationWriter] dumped person # 1
2022-08-12T16:23:08,551  INFO Counter:69 [PopulationWriter] dumped person # 2
2022-08-12T16:23:08,552  INFO Counter:69 [PopulationWriter] dumped person # 4
2022-08-12T16:23:08,553  INFO Counter:69 [PopulationWriter] dumped person # 8
2022-08-12T16:23:08,555  INFO Counter:69 [PopulationWriter] dumped person # 16
2022-08-12T16:23:08,562  INFO Counter:69 [PopulationWriter] dumped person # 32
2022-08-12T16:23:08,573  INFO Counter:69 [PopulationWriter] dumped person # 64
2022-08-12T16:23:08,589  INFO Counter:69 [PopulationWriter] dumped person # 128
2022-08-12T16:23:08,613  INFO Counter:69 [PopulationWriter] dumped person # 256
2022-08-12T16:23:08,664  INFO Counter:69 [PopulationWriter] dumped person # 512
2022-08-12T16:23:08,796  INFO Counter:69 [PopulationWriter] dumped person # 1024
2022-08-12T16:23:08,953  INFO Counter:69 [PopulationWriter] dumped person # 2048
2022-08-12T16:23:09,227  INFO Counter:69 [PopulationWriter] dumped person # 4096
2022-08-12T16:23:09,881  INFO Counter:69 [PopulationWriter] dumped person # 8192
2022-08-12T16:23:10,188  INFO PopulationWriter:144 Population written to: /Users/adfil/Documents/MATSim/matsim-example-project/scenarios/testfeldUnterschleissheimPt/plans10000.xml/ITERS/it.0/0.plans.xml.gz
2022-08-12T16:23:10,189  INFO Counter:74 [PopulationWriter] dumped person # 10000
2022-08-12T16:23:10,190  INFO PlansDumpingImpl:93 finished plans dump.
2022-08-12T16:23:10,190  INFO ControlerListenerManagerImpl:229 calling notifyBeforeMobsim on org.matsim.core.population.VspPlansCleaner
2022-08-12T16:23:10,212  INFO ControlerListenerManagerImpl:232 [it.0] all ControlerBeforeMobsimListeners called.
2022-08-12T16:23:10,214  INFO PrepareForMobsimImpl:86 Network seems to be multimodal. Create car-only network which is handed over to PersonPrepareForSim.
2022-08-12T16:23:10,214  INFO NetworkImpl:163  node # 1
2022-08-12T16:23:10,214  INFO NetworkImpl:163  node # 4
2022-08-12T16:23:10,214  INFO NetworkImpl:163  node # 16
2022-08-12T16:23:10,214  INFO NetworkImpl:163  node # 64
2022-08-12T16:23:10,214  INFO NetworkImpl:163  node # 256
2022-08-12T16:23:10,215  INFO NetworkImpl:163  node # 1024
2022-08-12T16:23:10,216  INFO NetworkImpl:163  node # 4096
2022-08-12T16:23:10,218  INFO NetworkImpl:159  link # 1
2022-08-12T16:23:10,218  INFO NetworkImpl:159  link # 4
2022-08-12T16:23:10,218  INFO NetworkImpl:159  link # 16
2022-08-12T16:23:10,218  INFO NetworkImpl:159  link # 64
2022-08-12T16:23:10,219  INFO NetworkImpl:159  link # 256
2022-08-12T16:23:10,221  INFO NetworkImpl:159  link # 1024
2022-08-12T16:23:10,229  INFO NetworkImpl:159  link # 4096
2022-08-12T16:23:10,281  INFO RandomizingTimeDistanceTravelDisutilityFactory:85  sigma: 3.0; resulting normalization: 0.011108996538242306
2022-08-12T16:23:10,282  INFO RandomizingTimeDistanceTravelDisutilityFactory:85  sigma: 3.0; resulting normalization: 0.011108996538242306
2022-08-12T16:23:10,284  INFO Counter:69 [PersonPrepareForSim] handled person # 1
2022-08-12T16:23:10,284  INFO Counter:69 [PersonPrepareForSim] handled person # 2
2022-08-12T16:23:10,285  INFO Counter:69 [PersonPrepareForSim] handled person # 4
2022-08-12T16:23:10,285  INFO Counter:69 [PersonPrepareForSim] handled person # 8
2022-08-12T16:23:10,285  INFO Counter:69 [PersonPrepareForSim] handled person # 16
2022-08-12T16:23:10,285  INFO Counter:69 [PersonPrepareForSim] handled person # 32
2022-08-12T16:23:10,285  INFO Counter:69 [PersonPrepareForSim] handled person # 64
2022-08-12T16:23:10,286  INFO Counter:69 [PersonPrepareForSim] handled person # 128
2022-08-12T16:23:10,286  INFO Counter:69 [PersonPrepareForSim] handled person # 256
2022-08-12T16:23:10,287  INFO Counter:69 [PersonPrepareForSim] handled person # 512
2022-08-12T16:23:10,289  INFO Counter:69 [PersonPrepareForSim] handled person # 1024
2022-08-12T16:23:10,293  INFO Counter:69 [PersonPrepareForSim] handled person # 2048
2022-08-12T16:23:10,297  INFO Counter:69 [PersonPrepareForSim] handled person # 4096
2022-08-12T16:23:10,304  INFO Counter:69 [PersonPrepareForSim] handled person # 8192
2022-08-12T16:23:10,308  INFO Counter:74 [PersonPrepareForSim] handled person # 10000
2022-08-12T16:23:10,407  INFO MobsimListenerManager:49 calling addQueueSimulationListener
2022-08-12T16:23:10,408  INFO MobsimListenerManager:53   assigned class org.matsim.core.mobsim.framework.listeners.MobsimListener to interface org.matsim.core.mobsim.framework.listeners.MobsimListener
2022-08-12T16:23:10,408  INFO MobsimListenerManager:53   assigned class org.matsim.core.mobsim.framework.listeners.MobsimListener to interface org.matsim.core.mobsim.framework.listeners.MobsimAfterSimStepListener
2022-08-12T16:23:10,408  INFO MobsimListenerManager:53   assigned class org.matsim.core.mobsim.framework.listeners.MobsimListener to interface org.matsim.core.mobsim.framework.listeners.MobsimBeforeCleanupListener
2022-08-12T16:23:10,408  INFO MobsimListenerManager:53   assigned class org.matsim.core.mobsim.framework.listeners.MobsimListener to interface org.matsim.core.mobsim.framework.listeners.MobsimInitializedListener
2022-08-12T16:23:10,409  INFO MobsimListenerManager:53   assigned class org.matsim.core.mobsim.framework.listeners.MobsimListener to interface org.matsim.vis.snapshotwriters.SnapshotWriterManager
2022-08-12T16:23:10,498  WARN QueueWithBuffer:499 Link pt_0 too small: enlarge storage capacity from: 27.77777777777778 Vehicles to: 50.0 Vehicles.  This is not fatal, but modifies the traffic flow dynamics.
2022-08-12T16:23:10,501  WARN QueueWithBuffer:499 Link pt_10006 too small: enlarge storage capacity from: 27.77777777777778 Vehicles to: 50.0 Vehicles.  This is not fatal, but modifies the traffic flow dynamics.
2022-08-12T16:23:10,502  WARN QueueWithBuffer:499 Link pt_10011 too small: enlarge storage capacity from: 27.77777777777778 Vehicles to: 50.0 Vehicles.  This is not fatal, but modifies the traffic flow dynamics.
2022-08-12T16:23:10,503  WARN QueueWithBuffer:499 Link pt_10014 too small: enlarge storage capacity from: 27.77777777777778 Vehicles to: 50.0 Vehicles.  This is not fatal, but modifies the traffic flow dynamics.
2022-08-12T16:23:10,503  WARN QueueWithBuffer:499 Link pt_10029 too small: enlarge storage capacity from: 27.77777777777778 Vehicles to: 50.0 Vehicles.  This is not fatal, but modifies the traffic flow dynamics.
2022-08-12T16:23:10,504  WARN QueueWithBuffer:499 Link pt_10035 too small: enlarge storage capacity from: 27.77777777777778 Vehicles to: 50.0 Vehicles.  This is not fatal, but modifies the traffic flow dynamics.
2022-08-12T16:23:10,504  WARN QueueWithBuffer:499 Link pt_10043 too small: enlarge storage capacity from: 27.77777777777778 Vehicles to: 50.0 Vehicles.  This is not fatal, but modifies the traffic flow dynamics.
2022-08-12T16:23:10,505  WARN QueueWithBuffer:499 Link pt_10056 too small: enlarge storage capacity from: 27.77777777777778 Vehicles to: 50.0 Vehicles.  This is not fatal, but modifies the traffic flow dynamics.
2022-08-12T16:23:10,506  WARN QueueWithBuffer:499 Link pt_10088 too small: enlarge storage capacity from: 27.77777777777778 Vehicles to: 50.0 Vehicles.  This is not fatal, but modifies the traffic flow dynamics.
2022-08-12T16:23:10,509  WARN QueueWithBuffer:499 Link pt_10118 too small: enlarge storage capacity from: 27.77777777777778 Vehicles to: 50.0 Vehicles.  This is not fatal, but modifies the traffic flow dynamics.
2022-08-12T16:23:10,511  WARN QueueWithBuffer:499 Link pt_10123 too small: enlarge storage capacity from: 27.77777777777778 Vehicles to: 50.0 Vehicles.  This is not fatal, but modifies the traffic flow dynamics.
2022-08-12T16:23:10,511  WARN QueueWithBuffer:502 Additional warnings of this type are suppressed.
2022-08-12T16:23:10,551  INFO QSimProvider:122 Added MobsimEngine class org.matsim.core.mobsim.qsim.ActivityEngineDefaultImpl
2022-08-12T16:23:10,551  INFO QSimProvider:128 Added Activityhandler class org.matsim.core.mobsim.qsim.ActivityEngineDefaultImpl
2022-08-12T16:23:10,551  INFO QSimProvider:134 Added DepartureHandler class org.matsim.core.mobsim.qsim.qnetsimengine.VehicularDepartureHandler
2022-08-12T16:23:10,551  INFO QSimProvider:122 Added MobsimEngine class org.matsim.core.mobsim.qsim.qnetsimengine.QNetsimEngineWithThreadpool
2022-08-12T16:23:10,551  INFO QSimProvider:122 Added MobsimEngine class org.matsim.core.mobsim.qsim.DefaultTeleportationEngine
2022-08-12T16:23:10,551  INFO QSimProvider:134 Added DepartureHandler class org.matsim.core.mobsim.qsim.DefaultTeleportationEngine
2022-08-12T16:23:10,552  INFO QSimProvider:140 Added AgentSource class org.matsim.core.mobsim.qsim.agents.PopulationAgentSource
2022-08-12T16:23:10,552  INFO MobsimListenerManager:49 calling addQueueSimulationListener
2022-08-12T16:23:10,552  INFO MobsimListenerManager:53   assigned class org.matsim.core.mobsim.framework.listeners.MobsimListener to interface org.matsim.core.mobsim.framework.listeners.MobsimBeforeSimStepListener
2022-08-12T16:23:10,552  INFO MobsimListenerManager:53   assigned class org.matsim.core.mobsim.framework.listeners.MobsimListener to interface org.matsim.core.mobsim.framework.listeners.MobsimListener
2022-08-12T16:23:10,552  INFO MobsimListenerManager:53   assigned class org.matsim.core.mobsim.framework.listeners.MobsimListener to interface org.matsim.core.mobsim.qsim.messagequeueengine.MessageQueueEngine
2022-08-12T16:23:10,552  INFO QSimProvider:146 Added MobsimListener class org.matsim.core.mobsim.qsim.messagequeueengine.MessageQueueEngine
2022-08-12T16:23:10,561  INFO PopulationUtils:1145 adding scenario element for allpersons container
2022-08-12T16:23:10,561  INFO PopulationImpl:105  person # 1
2022-08-12T16:23:10,561  INFO PopulationImpl:105  person # 4
2022-08-12T16:23:10,561  INFO PopulationImpl:105  person # 16
2022-08-12T16:23:10,562  INFO PopulationImpl:105  person # 64
2022-08-12T16:23:10,563  INFO PopulationImpl:105  person # 256
2022-08-12T16:23:10,568  INFO PopulationImpl:105  person # 1024
2022-08-12T16:23:10,576  INFO PopulationImpl:105  person # 4096
2022-08-12T16:23:10,587  INFO VehicleUtils:327 adding scenario element for allvehicles container
2022-08-12T16:23:10,587  INFO Counter:69 [VehiclesImpl] added vehicle # 1
2022-08-12T16:23:10,587  INFO Counter:69 [VehiclesImpl] added vehicle # 2
2022-08-12T16:23:10,587  INFO Counter:69 [VehiclesImpl] added vehicle # 4
2022-08-12T16:23:10,587  INFO Counter:69 [VehiclesImpl] added vehicle # 8
2022-08-12T16:23:10,587  INFO Counter:69 [VehiclesImpl] added vehicle # 16
2022-08-12T16:23:10,588  INFO Counter:69 [VehiclesImpl] added vehicle # 32
2022-08-12T16:23:10,588  INFO Counter:69 [VehiclesImpl] added vehicle # 64
2022-08-12T16:23:10,589  INFO Counter:69 [VehiclesImpl] added vehicle # 128
2022-08-12T16:23:10,591  INFO Counter:69 [VehiclesImpl] added vehicle # 256
2022-08-12T16:23:10,594  INFO Counter:69 [VehiclesImpl] added vehicle # 512
2022-08-12T16:23:10,597  INFO Counter:69 [VehiclesImpl] added vehicle # 1024
2022-08-12T16:23:10,600  INFO Counter:69 [VehiclesImpl] added vehicle # 2048
2022-08-12T16:23:10,607  INFO Counter:69 [VehiclesImpl] added vehicle # 4096
2022-08-12T16:23:10,629  INFO Counter:69 [VehiclesImpl] added vehicle # 8192
2022-08-12T16:23:10,678  INFO AbstractQNetsimEngine:427 Assigned 8642 nodes and 16564 links to QSimEngineRunner #0
2022-08-12T16:23:10,716  INFO EventsManagerImpl:137  event # 1
2022-08-12T16:23:10,725  INFO EventsManagerImpl:137  event # 4
2022-08-12T16:23:10,736  INFO AbstractQNetsimEngine:365 SIMULATION (QNetsimEngine) AT 07:00:00 : #links=0 #nodes=1
2022-08-12T16:23:10,749  INFO QSim:553 SIMULATION (NEW QSim) AT 07:00:00 : #Veh=10000 lost=0 simT=0.0s realT=0s; (s/r): 0.0
2022-08-12T16:23:10,751  INFO EventsManagerImpl:137  event # 16
2022-08-12T16:23:10,754  INFO EventsManagerImpl:137  event # 64
2022-08-12T16:23:10,765  INFO EventsManagerImpl:137  event # 256
2022-08-12T16:23:10,785  WARN DefaultTurnAcceptanceLogic:57 Cannot move vehicle 2157 from link pt_110 to link 331141419_1
2022-08-12T16:23:10,798  INFO EventsManagerImpl:137  event # 1024
2022-08-12T16:23:10,806  WARN DefaultTurnAcceptanceLogic:57 Cannot move vehicle 6287 from link pt_7274 to link 525033960_1
2022-08-12T16:23:10,811  WARN DefaultTurnAcceptanceLogic:57 Cannot move vehicle 4192 from link pt_260 to link 24495707_0_r
2022-08-12T16:23:10,822  WARN DefaultTurnAcceptanceLogic:57 Cannot move vehicle 5517 from link pt_7274 to link 525033960_1
2022-08-12T16:23:10,825  WARN DefaultTurnAcceptanceLogic:57 Cannot move vehicle 3838 from link pt_7280 to link 24504487_2_r
2022-08-12T16:23:10,841  WARN DefaultTurnAcceptanceLogic:57 Cannot move vehicle 9651 from link pt_255 to link 24259966_0_r
2022-08-12T16:23:10,873  WARN DefaultTurnAcceptanceLogic:57 Cannot move vehicle 5773 from link pt_1589 to link 474929546_0
2022-08-12T16:23:10,903  WARN DefaultTurnAcceptanceLogic:57 Cannot move vehicle 7966 from link pt_255 to link 24259966_0_r
2022-08-12T16:23:10,954  WARN DefaultTurnAcceptanceLogic:57 Cannot move vehicle 7411 from link pt_1690 to link 971415150_0
2022-08-12T16:23:10,975  INFO EventsManagerImpl:137  event # 4096
2022-08-12T16:23:11,012  WARN DefaultTurnAcceptanceLogic:57 Cannot move vehicle 5809 from link pt_1686 to link 165279831_0_r
2022-08-12T16:23:11,073  WARN DefaultTurnAcceptanceLogic:57 Cannot move vehicle 4533 from link pt_255 to link 24259966_0_r
2022-08-12T16:23:11,141  WARN DefaultTurnAcceptanceLogic:57 Cannot move vehicle 4818 from link pt_255 to link 24259966_0_r
2022-08-12T16:23:11,163  WARN DefaultTurnAcceptanceLogic:57 Cannot move vehicle 80 from link pt_7274 to link 525033960_1
2022-08-12T16:23:11,188  WARN DefaultTurnAcceptanceLogic:57 Cannot move vehicle 7160 from link pt_1589 to link 474929546_0
2022-08-12T16:23:11,190  WARN DefaultTurnAcceptanceLogic:57 Cannot move vehicle 8253 from link pt_7274 to link 8494410_4_r
2022-08-12T16:23:11,197  WARN DefaultTurnAcceptanceLogic:57 Cannot move vehicle 6210 from link pt_200 to link 5819069_3
2022-08-12T16:23:11,209  WARN DefaultTurnAcceptanceLogic:57 Cannot move vehicle 7401 from link pt_233 to link 315886543_3_r
2022-08-12T16:23:11,270  WARN DefaultTurnAcceptanceLogic:57 Cannot move vehicle 3132 from link pt_7280 to link 24504487_2_r
2022-08-12T16:23:11,296  WARN DefaultTurnAcceptanceLogic:57 Cannot move vehicle 6337 from link pt_255 to link 24259966_0_r
2022-08-12T16:23:11,340  INFO EventsManagerImpl:137  event # 16384
2022-08-12T16:23:11,354  WARN DefaultTurnAcceptanceLogic:57 Cannot move vehicle 259 from link pt_255 to link 24259966_0_r
2022-08-12T16:23:11,381  WARN DefaultTurnAcceptanceLogic:57 Cannot move vehicle 3182 from link pt_7274 to link 8494410_4_r
2022-08-12T16:23:11,448  WARN DefaultTurnAcceptanceLogic:57 Cannot move vehicle 8120 from link pt_255 to link 24259966_0_r
2022-08-12T16:23:11,455  WARN DefaultTurnAcceptanceLogic:57 Cannot move vehicle 5389 from link pt_7274 to link 525033960_1
2022-08-12T16:23:11,521  WARN DefaultTurnAcceptanceLogic:57 Cannot move vehicle 5778 from link pt_1690 to link 971415150_0
2022-08-12T16:23:11,543  WARN DefaultTurnAcceptanceLogic:57 Cannot move vehicle 4002 from link pt_229 to link 24259966_0_r
2022-08-12T16:23:11,563  WARN DefaultTurnAcceptanceLogic:57 Cannot move vehicle 7540 from link pt_255 to link 24259966_0_r
2022-08-12T16:23:11,572  WARN DefaultTurnAcceptanceLogic:57 Cannot move vehicle 8180 from link pt_1589 to link 474929546_0
2022-08-12T16:23:11,614  WARN DefaultTurnAcceptanceLogic:57 Cannot move vehicle 4278 from link pt_223 to link 885485330_0_r
2022-08-12T16:23:11,641  WARN DefaultTurnAcceptanceLogic:57 Cannot move vehicle 1241 from link pt_7274 to link 525033960_1
2022-08-12T16:23:11,693  WARN DefaultTurnAcceptanceLogic:57 Cannot move vehicle 1822 from link pt_244 to link 744557380_1
2022-08-12T16:23:11,705  WARN DefaultTurnAcceptanceLogic:57 Cannot move vehicle 7856 from link pt_1589 to link 165279831_0_r
2022-08-12T16:23:11,763  WARN DefaultTurnAcceptanceLogic:57 Cannot move vehicle 4741 from link pt_1589 to link 474929546_0
2022-08-12T16:23:11,768  WARN DefaultTurnAcceptanceLogic:57 Cannot move vehicle 8689 from link pt_1587 to link 165279831_0_r
2022-08-12T16:23:11,792  WARN DefaultTurnAcceptanceLogic:57 Cannot move vehicle 4965 from link pt_1589 to link 474929546_0
2022-08-12T16:23:11,823  WARN DefaultTurnAcceptanceLogic:57 Cannot move vehicle 8068 from link pt_255 to link 24259966_0_r
2022-08-12T16:23:11,830  WARN DefaultTurnAcceptanceLogic:57 Cannot move vehicle 5674 from link pt_209 to link 442679255_1_r
2022-08-12T16:23:11,853  WARN DefaultTurnAcceptanceLogic:57 Cannot move vehicle 9046 from link pt_1587 to link 474929546_0
2022-08-12T16:23:11,858  WARN DefaultTurnAcceptanceLogic:57 Cannot move vehicle 1889 from link pt_7274 to link 8494410_4_r
2022-08-12T16:23:11,862  WARN DefaultTurnAcceptanceLogic:57 Cannot move vehicle 820 from link pt_7274 to link 525033960_1
2022-08-12T16:23:11,862  WARN DefaultTurnAcceptanceLogic:57 Cannot move vehicle 6007 from link pt_255 to link 24259966_0_r
2022-08-12T16:23:11,921  WARN DefaultTurnAcceptanceLogic:57 Cannot move vehicle 4989 from link pt_7279 to link 24504487_2_r
2022-08-12T16:23:12,031  WARN DefaultTurnAcceptanceLogic:57 Cannot move vehicle 614 from link pt_1589 to link 165279831_0
2022-08-12T16:23:12,121  WARN DefaultTurnAcceptanceLogic:57 Cannot move vehicle 1101 from link pt_1686 to link 165279831_0_r
2022-08-12T16:23:12,159  WARN DefaultTurnAcceptanceLogic:57 Cannot move vehicle 118 from link pt_254 to link 24259966_0_r
2022-08-12T16:23:12,173  WARN DefaultTurnAcceptanceLogic:57 Cannot move vehicle 2866 from link pt_1587 to link 165279831_0_r
2022-08-12T16:23:12,246  WARN DefaultTurnAcceptanceLogic:57 Cannot move vehicle 3772 from link pt_255 to link 24259966_0_r
2022-08-12T16:23:12,250  WARN DefaultTurnAcceptanceLogic:57 Cannot move vehicle 1254 from link pt_7274 to link 525033960_1
2022-08-12T16:23:12,255  WARN DefaultTurnAcceptanceLogic:57 Cannot move vehicle 9216 from link pt_1589 to link 24519647_1_r
2022-08-12T16:23:12,256  WARN DefaultTurnAcceptanceLogic:57 Cannot move vehicle 1915 from link pt_7274 to link 525033960_1
2022-08-12T16:23:12,257  WARN DefaultTurnAcceptanceLogic:57 Cannot move vehicle 3876 from link pt_1589 to link 165279831_0_r
2022-08-12T16:23:12,287  WARN DefaultTurnAcceptanceLogic:57 Cannot move vehicle 632 from link pt_114 to link 79397801_4_r
2022-08-12T16:23:12,326  WARN DefaultTurnAcceptanceLogic:57 Cannot move vehicle 4600 from link pt_254 to link 24259966_0_r
2022-08-12T16:23:12,360  WARN DefaultTurnAcceptanceLogic:57 Cannot move vehicle 8881 from link pt_199 to link 1010751689_0
2022-08-12T16:23:12,374  WARN DefaultTurnAcceptanceLogic:57 Cannot move vehicle 3651 from link pt_1690 to link 971415150_0
2022-08-12T16:23:12,399  WARN DefaultTurnAcceptanceLogic:57 Cannot move vehicle 2657 from link pt_7279 to link 24504487_2_r
2022-08-12T16:23:12,616  WARN DefaultTurnAcceptanceLogic:57 Cannot move vehicle 4347 from link pt_1589 to link 165279831_0_r
2022-08-12T16:23:12,633  WARN DefaultTurnAcceptanceLogic:57 Cannot move vehicle 7044 from link pt_7274 to link 525033960_1
2022-08-12T16:23:12,636  WARN DefaultTurnAcceptanceLogic:57 Cannot move vehicle 8246 from link pt_7274 to link 525033960_1
2022-08-12T16:23:12,636  WARN DefaultTurnAcceptanceLogic:57 Cannot move vehicle 70 from link pt_1587 to link 165279831_0_r
2022-08-12T16:23:12,645  INFO EventsManagerImpl:137  event # 65536
2022-08-12T16:23:12,658  WARN DefaultTurnAcceptanceLogic:57 Cannot move vehicle 2518 from link pt_7274 to link 525033960_1
2022-08-12T16:23:12,702  WARN DefaultTurnAcceptanceLogic:57 Cannot move vehicle 8032 from link pt_233 to link 26674218_3_r
2022-08-12T16:23:12,720  WARN DefaultTurnAcceptanceLogic:57 Cannot move vehicle 784 from link pt_7274 to link 525033960_1
2022-08-12T16:23:12,739  WARN DefaultTurnAcceptanceLogic:57 Cannot move vehicle 3410 from link pt_255 to link 24259966_0_r
2022-08-12T16:23:12,760  WARN DefaultTurnAcceptanceLogic:57 Cannot move vehicle 8387 from link pt_1690 to link 971415150_0
2022-08-12T16:23:12,807  WARN DefaultTurnAcceptanceLogic:57 Cannot move vehicle 8720 from link pt_1589 to link 165279831_0_r
2022-08-12T16:23:12,978  WARN DefaultTurnAcceptanceLogic:57 Cannot move vehicle 9549 from link pt_7280 to link 8494410_4_r
2022-08-12T16:23:13,020  WARN DefaultTurnAcceptanceLogic:57 Cannot move vehicle 6997 from link pt_7274 to link 525033960_1
2022-08-12T16:23:13,022  WARN DefaultTurnAcceptanceLogic:57 Cannot move vehicle 3120 from link pt_1589 to link 474929546_0
2022-08-12T16:23:13,067  WARN DefaultTurnAcceptanceLogic:57 Cannot move vehicle 1545 from link pt_7274 to link 525033960_1
2022-08-12T16:23:13,123  WARN DefaultTurnAcceptanceLogic:57 Cannot move vehicle 2543 from link pt_1589 to link 474929546_0
2022-08-12T16:23:13,148  WARN DefaultTurnAcceptanceLogic:57 Cannot move vehicle 7826 from link pt_7274 to link 525033960_1
2022-08-12T16:23:13,223  WARN DefaultTurnAcceptanceLogic:57 Cannot move vehicle 1120 from link pt_7279 to link 24504487_2_r
2022-08-12T16:23:13,302  WARN DefaultTurnAcceptanceLogic:57 Cannot move vehicle 5504 from link pt_7274 to link 525033960_1
2022-08-12T16:23:13,307  WARN DefaultTurnAcceptanceLogic:57 Cannot move vehicle 1231 from link pt_7274 to link 525033960_1
2022-08-12T16:23:13,323  WARN DefaultTurnAcceptanceLogic:57 Cannot move vehicle 4018 from link pt_1589 to link 474929546_0
2022-08-12T16:23:13,337  WARN DefaultTurnAcceptanceLogic:57 Cannot move vehicle 6168 from link pt_233 to link 26674218_3_r
2022-08-12T16:23:13,362  WARN DefaultTurnAcceptanceLogic:57 Cannot move vehicle 2806 from link pt_11752 to link 23938055_1
2022-08-12T16:23:13,382  WARN DefaultTurnAcceptanceLogic:57 Cannot move vehicle 4596 from link pt_7280 to link 24504487_2_r
2022-08-12T16:23:13,397  WARN DefaultTurnAcceptanceLogic:57 Cannot move vehicle 8961 from link pt_1589 to link 474929546_0
2022-08-12T16:23:13,397  WARN DefaultTurnAcceptanceLogic:57 Cannot move vehicle 1229 from link pt_5967 to link 4794779_0
2022-08-12T16:23:13,409  WARN DefaultTurnAcceptanceLogic:57 Cannot move vehicle 6616 from link pt_1587 to link 474929546_0
2022-08-12T16:23:13,473  WARN DefaultTurnAcceptanceLogic:57 Cannot move vehicle 7945 from link pt_1589 to link 24519647_1_r
2022-08-12T16:23:13,515  WARN DefaultTurnAcceptanceLogic:57 Cannot move vehicle 7366 from link pt_5960 to link 967953231_1
2022-08-12T16:23:13,652  WARN DefaultTurnAcceptanceLogic:57 Cannot move vehicle 6427 from link pt_1587 to link 474929546_0
2022-08-12T16:23:13,753  WARN DefaultTurnAcceptanceLogic:57 Cannot move vehicle 8739 from link pt_255 to link 24259966_0_r
2022-08-12T16:23:13,785  WARN DefaultTurnAcceptanceLogic:57 Cannot move vehicle 2967 from link pt_7274 to link 8494410_4_r
2022-08-12T16:23:13,813  WARN DefaultTurnAcceptanceLogic:57 Cannot move vehicle 5098 from link pt_7280 to link 24504487_2_r
2022-08-12T16:23:13,835  WARN DefaultTurnAcceptanceLogic:57 Cannot move vehicle 9596 from link pt_241 to link 4800983_12
2022-08-12T16:23:13,839  WARN DefaultTurnAcceptanceLogic:57 Cannot move vehicle 490 from link pt_237 to link 33703770_0_r
2022-08-12T16:23:13,861  WARN DefaultTurnAcceptanceLogic:57 Cannot move vehicle 622 from link pt_1589 to link 474929546_0
2022-08-12T16:23:13,862  WARN DefaultTurnAcceptanceLogic:57 Cannot move vehicle 5826 from link pt_1589 to link 24519647_1_r
2022-08-12T16:23:13,893  WARN DefaultTurnAcceptanceLogic:57 Cannot move vehicle 9066 from link pt_1589 to link 165279831_0_r
2022-08-12T16:23:13,918  WARN DefaultTurnAcceptanceLogic:57 Cannot move vehicle 1755 from link pt_255 to link 24259966_0_r
2022-08-12T16:23:13,921  WARN DefaultTurnAcceptanceLogic:57 Cannot move vehicle 6791 from link pt_6000 to link 967953231_1
2022-08-12T16:23:13,928  WARN DefaultTurnAcceptanceLogic:57 Cannot move vehicle 6970 from link pt_7274 to link 525033960_1
2022-08-12T16:23:13,933  WARN DefaultTurnAcceptanceLogic:57 Cannot move vehicle 5349 from link pt_1690 to link 971415150_0
2022-08-12T16:23:13,959  WARN DefaultTurnAcceptanceLogic:57 Cannot move vehicle 8883 from link pt_255 to link 24259966_0_r
2022-08-12T16:23:14,052  WARN DefaultTurnAcceptanceLogic:57 Cannot move vehicle 437 from link pt_121 to link 245444352_4_r
2022-08-12T16:23:14,121  WARN DefaultTurnAcceptanceLogic:57 Cannot move vehicle 3376 from link pt_251 to link 315886543_0
2022-08-12T16:23:14,130  WARN DefaultTurnAcceptanceLogic:57 Cannot move vehicle 501 from link pt_7274 to link 525033960_1
2022-08-12T16:23:14,180  WARN DefaultTurnAcceptanceLogic:57 Cannot move vehicle 4782 from link pt_255 to link 24259966_0_r
2022-08-12T16:23:14,206  WARN DefaultTurnAcceptanceLogic:57 Cannot move vehicle 7675 from link pt_11725 to link 542665671_1_r
2022-08-12T16:23:14,240  WARN DefaultTurnAcceptanceLogic:57 Cannot move vehicle 4595 from link pt_7279 to link 24504487_2_r
2022-08-12T16:23:14,252  WARN DefaultTurnAcceptanceLogic:57 Cannot move vehicle 1470 from link pt_255 to link 24259966_0_r
2022-08-12T16:23:14,306  WARN DefaultTurnAcceptanceLogic:57 Cannot move vehicle 6574 from link pt_1686 to link 165279831_0_r
2022-08-12T16:23:14,310  WARN DefaultTurnAcceptanceLogic:57 Cannot move vehicle 4421 from link pt_255 to link 24259966_0_r
2022-08-12T16:23:14,315  WARN DefaultTurnAcceptanceLogic:57 Cannot move vehicle 651 from link pt_255 to link 24259966_0_r
2022-08-12T16:23:14,326  WARN DefaultTurnAcceptanceLogic:57 Cannot move vehicle 3067 from link pt_121 to link 507950080_2
2022-08-12T16:23:14,328  WARN DefaultTurnAcceptanceLogic:57 Cannot move vehicle 9508 from link pt_1690 to link 971415150_0
2022-08-12T16:23:14,381  WARN DefaultTurnAcceptanceLogic:57 Cannot move vehicle 9189 from link pt_7254 to link 525033960_1
2022-08-12T16:23:14,381  WARN DefaultTurnAcceptanceLogic:57 Cannot move vehicle 678 from link pt_1686 to link 165279831_0_r
[...]
2022-08-12T16:25:47,507  WARN DefaultTurnAcceptanceLogic:57 Cannot move vehicle 4161 from link pt_7280 to link 24504487_2_r
2022-08-12T16:25:47,585  WARN DefaultTurnAcceptanceLogic:57 Cannot move vehicle 8306 from link pt_1589 to link 474929546_0
2022-08-12T16:25:47,591  WARN DefaultTurnAcceptanceLogic:57 Cannot move vehicle 5340 from link pt_1690 to link 971415150_0
2022-08-12T16:25:47,597  WARN DefaultTurnAcceptanceLogic:57 Cannot move vehicle 6285 from link pt_1589 to link 474929546_0
2022-08-12T16:25:47,600  WARN DefaultTurnAcceptanceLogic:57 Cannot move vehicle 7300 from link pt_1589 to link 474929546_0
2022-08-12T16:25:47,614  WARN DefaultTurnAcceptanceLogic:57 Cannot move vehicle 2792 from link pt_1589 to link 474929546_0
2022-08-12T16:25:47,634  WARN DefaultTurnAcceptanceLogic:57 Cannot move vehicle 6051 from link pt_5960 to link 967953231_1
2022-08-12T16:25:47,639  WARN DefaultTurnAcceptanceLogic:57 Cannot move vehicle 6630 from link pt_1589 to link 474929546_0
2022-08-12T16:25:47,651  WARN DefaultTurnAcceptanceLogic:57 Cannot move vehicle 8848 from link pt_7274 to link 525033960_1
2022-08-12T16:25:47,653  WARN DefaultTurnAcceptanceLogic:57 Cannot move vehicle 4012 from link pt_260 to link 24495707_0_r
2022-08-12T16:25:47,703  WARN DefaultTurnAcceptanceLogic:57 Cannot move vehicle 6057 from link pt_5960 to link 967953231_1
2022-08-12T16:25:47,705  WARN DefaultTurnAcceptanceLogic:57 Cannot move vehicle 4279 from link pt_200 to link 5819069_2_r
2022-08-12T16:25:47,710  WARN DefaultTurnAcceptanceLogic:57 Cannot move vehicle 305 from link pt_7274 to link 525033960_1
2022-08-12T16:25:47,729  WARN DefaultTurnAcceptanceLogic:57 Cannot move vehicle 5224 from link pt_7279 to link 24504487_2_r
2022-08-12T16:25:47,741  WARN DefaultTurnAcceptanceLogic:57 Cannot move vehicle 29 from link pt_255 to link 24259966_0_r
2022-08-12T16:25:47,782  WARN DefaultTurnAcceptanceLogic:57 Cannot move vehicle 417 from link pt_255 to link 24259966_0_r
2022-08-12T16:25:47,785  WARN DefaultTurnAcceptanceLogic:57 Cannot move vehicle 6362 from link pt_1690 to link 971415150_0
2022-08-12T16:25:47,798  WARN DefaultTurnAcceptanceLogic:57 Cannot move vehicle 3564 from link pt_7274 to link 8494410_4_r
2022-08-12T16:25:47,806  WARN DefaultTurnAcceptanceLogic:57 Cannot move vehicle 9922 from link pt_255 to link 24259966_0_r
2022-08-12T16:25:47,828  WARN DefaultTurnAcceptanceLogic:57 Cannot move vehicle 8565 from link pt_1589 to link 474929546_0
2022-08-12T16:25:47,830  WARN DefaultTurnAcceptanceLogic:57 Cannot move vehicle 8550 from link pt_1589 to link 474929546_0
2022-08-12T16:25:47,835  WARN DefaultTurnAcceptanceLogic:57 Cannot move vehicle 9248 from link pt_255 to link 24259966_0_r
2022-08-12T16:25:47,852  WARN DefaultTurnAcceptanceLogic:57 Cannot move vehicle 8019 from link pt_1589 to link 474929546_0
2022-08-12T16:25:47,871  WARN DefaultTurnAcceptanceLogic:57 Cannot move vehicle 6819 from link pt_255 to link 24259966_0_r
2022-08-12T16:25:47,912  WARN DefaultTurnAcceptanceLogic:57 Cannot move vehicle 5441 from link pt_1587 to link 165279831_0
2022-08-12T16:25:47,913  WARN DefaultTurnAcceptanceLogic:57 Cannot move vehicle 1849 from link pt_1686 to link 165279831_0_r
2022-08-12T16:25:47,919  WARN DefaultTurnAcceptanceLogic:57 Cannot move vehicle 4156 from link pt_7274 to link 525033960_1
2022-08-12T16:25:47,962  WARN DefaultTurnAcceptanceLogic:57 Cannot move vehicle 4289 from link pt_255 to link 24259966_0_r
2022-08-12T16:25:48,045  WARN DefaultTurnAcceptanceLogic:57 Cannot move vehicle 9674 from link pt_1690 to link 971415150_0
2022-08-12T16:25:48,113  WARN DefaultTurnAcceptanceLogic:57 Cannot move vehicle 2707 from link pt_1589 to link 474929546_0
2022-08-12T16:25:48,142  WARN DefaultTurnAcceptanceLogic:57 Cannot move vehicle 9355 from link pt_7280 to link 24504487_2_r
2022-08-12T16:25:48,169  WARN DefaultTurnAcceptanceLogic:57 Cannot move vehicle 4694 from link pt_233 to link 26674218_3_r
2022-08-12T16:25:48,184  WARN DefaultTurnAcceptanceLogic:57 Cannot move vehicle 6389 from link pt_239 to link 4800987_6
2022-08-12T16:25:48,188  WARN DefaultTurnAcceptanceLogic:57 Cannot move vehicle 1830 from link pt_7274 to link 525033960_1
2022-08-12T16:25:48,208  WARN DefaultTurnAcceptanceLogic:57 Cannot move vehicle 9090 from link pt_7274 to link 525033960_1
2022-08-12T16:25:48,213  WARN DefaultTurnAcceptanceLogic:57 Cannot move vehicle 3519 from link pt_7274 to link 525033960_1
2022-08-12T16:25:48,215  WARN DefaultTurnAcceptanceLogic:57 Cannot move vehicle 1806 from link pt_7274 to link 8494410_4_r
2022-08-12T16:25:48,250  INFO AbstractQNetsimEngine:365 SIMULATION (QNetsimEngine) AT 08:00:00 : #links=493 #nodes=236
2022-08-12T16:25:48,250  INFO QSim:553 SIMULATION (NEW QSim) AT 08:00:00 : #Veh=9519 lost=481 simT=3600.0s realT=7s; (s/r): 514.2857142857143
2022-08-12T16:25:49,807  INFO AbstractQNetsimEngine:365 SIMULATION (QNetsimEngine) AT 09:00:00 : #links=97 #nodes=42
2022-08-12T16:25:49,807  INFO QSim:553 SIMULATION (NEW QSim) AT 09:00:00 : #Veh=9519 lost=481 simT=7200.0s realT=8s; (s/r): 900.0
2022-08-12T16:25:50,302  INFO AbstractQNetsimEngine:365 SIMULATION (QNetsimEngine) AT 10:00:00 : #links=5 #nodes=0
2022-08-12T16:25:50,303  INFO QSim:553 SIMULATION (NEW QSim) AT 10:00:00 : #Veh=9519 lost=481 simT=10800.0s realT=9s; (s/r): 1200.0
2022-08-12T16:25:50,445  INFO AbstractQNetsimEngine:365 SIMULATION (QNetsimEngine) AT 11:00:00 : #links=0 #nodes=0
2022-08-12T16:25:50,445  INFO QSim:553 SIMULATION (NEW QSim) AT 11:00:00 : #Veh=9519 lost=481 simT=14400.0s realT=9s; (s/r): 1600.0
2022-08-12T16:25:50,628  INFO AbstractQNetsimEngine:365 SIMULATION (QNetsimEngine) AT 12:00:00 : #links=0 #nodes=0
2022-08-12T16:25:50,628  INFO QSim:553 SIMULATION (NEW QSim) AT 12:00:00 : #Veh=9519 lost=481 simT=18000.0s realT=9s; (s/r): 2000.0
2022-08-12T16:25:50,789  INFO AbstractQNetsimEngine:365 SIMULATION (QNetsimEngine) AT 13:00:00 : #links=0 #nodes=0
2022-08-12T16:25:50,789  INFO QSim:553 SIMULATION (NEW QSim) AT 13:00:00 : #Veh=9519 lost=481 simT=21600.0s realT=9s; (s/r): 2400.0
2022-08-12T16:25:50,976  INFO AbstractQNetsimEngine:365 SIMULATION (QNetsimEngine) AT 14:00:00 : #links=0 #nodes=0
2022-08-12T16:25:50,976  INFO QSim:553 SIMULATION (NEW QSim) AT 14:00:00 : #Veh=9519 lost=481 simT=25200.0s realT=9s; (s/r): 2800.0
2022-08-12T16:25:51,135  INFO AbstractQNetsimEngine:365 SIMULATION (QNetsimEngine) AT 15:00:00 : #links=0 #nodes=0
2022-08-12T16:25:51,135  INFO QSim:553 SIMULATION (NEW QSim) AT 15:00:00 : #Veh=9519 lost=481 simT=28800.0s realT=9s; (s/r): 3200.0
2022-08-12T16:25:51,317  INFO AbstractQNetsimEngine:365 SIMULATION (QNetsimEngine) AT 16:00:00 : #links=0 #nodes=2
2022-08-12T16:25:51,317  INFO QSim:553 SIMULATION (NEW QSim) AT 16:00:00 : #Veh=9518 lost=481 simT=32400.0s realT=10s; (s/r): 3240.0
2022-08-12T16:25:55,942  INFO AbstractQNetsimEngine:365 SIMULATION (QNetsimEngine) AT 17:00:00 : #links=499 #nodes=239
2022-08-12T16:25:55,943  INFO QSim:553 SIMULATION (NEW QSim) AT 17:00:00 : #Veh=3570 lost=481 simT=36000.0s realT=14s; (s/r): 2571.4285714285716
2022-08-12T16:25:57,484  INFO AbstractQNetsimEngine:365 SIMULATION (QNetsimEngine) AT 18:00:00 : #links=89 #nodes=36
2022-08-12T16:25:57,484  INFO QSim:553 SIMULATION (NEW QSim) AT 18:00:00 : #Veh=790 lost=481 simT=39600.0s realT=16s; (s/r): 2475.0
2022-08-12T16:25:57,901  INFO Gbl:191 Thread performance: Thread=class org.matsim.core.events.SimStepParallelEventsManagerImpl$ProcessEventsRunnable0  cpu-time=13.91513sec
2022-08-12T16:25:57,902  INFO AbstractController$9:234 ### ITERATION 10 fires after mobsim event
2022-08-12T16:25:57,902  INFO ControlerListenerManagerImpl:248 calling notifyAfterMobsim on org.matsim.analysis.LegTimesControlerListener
2022-08-12T16:25:57,903  INFO LegTimesControlerListener:50 [10] average trip (probably: leg) duration is: 1579 seconds = 00:26:19
2022-08-12T16:25:57,903  INFO ControlerListenerManagerImpl:248 calling notifyAfterMobsim on org.matsim.core.events.MobsimScopeEventHandling
2022-08-12T16:25:57,903  INFO ControlerListenerManagerImpl:248 calling notifyAfterMobsim on org.matsim.core.scoring.EventsToActivities$1
2022-08-12T16:25:57,911  INFO ControlerListenerManagerImpl:251 [it.10] all ControlerAfterMobsimListeners called.
2022-08-12T16:25:57,911  INFO AbstractController$4:159 ### ITERATION 10 fires scoring event
2022-08-12T16:25:57,911  INFO ControlerListenerManagerImpl:183 calling notifyScoring on org.matsim.core.scoring.PlansScoringImpl
2022-08-12T16:25:57,917  INFO NewScoreAssignerImpl:57 it: 10 msaStart: null
2022-08-12T16:25:57,924  INFO ControlerListenerManagerImpl:194 [it.10] all ControlerScoringListeners called.
2022-08-12T16:25:57,924  INFO AbstractController$5:167 ### ITERATION 10 fires iteration end event
2022-08-12T16:25:57,924  INFO ControlerListenerManagerImpl:160 calling notifyIterationEnds on org.matsim.core.controler.corelisteners.EventsHandlingImpl
2022-08-12T16:25:57,927  INFO EventsManagerImpl:181 removing Event-Handler: org.matsim.core.events.algorithms.EventWriterXML
2022-08-12T16:25:57,927  INFO EventsManagerImpl:181 removing Event-Handler: org.matsim.core.events.algorithms.EventWriterXML
2022-08-12T16:25:57,927  INFO ControlerListenerManagerImpl:160 calling notifyIterationEnds on org.matsim.core.scoring.PlansScoringImpl
2022-08-12T16:25:57,933  INFO ControlerListenerManagerImpl:167 calling notifyIterationEnds on org.matsim.counts.CountsControlerListener
2022-08-12T16:25:57,940  INFO CountSimComparisonTableWriter:93 Writing CountsSimComparison to /Users/adfil/Documents/MATSim/matsim-example-project/scenarios/testfeldUnterschleissheimPt/plans10000.xml/ITERS/it.10/10.countscompare.txt
2022-08-12T16:25:57,941  INFO CountSimComparisonTableWriter:134 Writing 'average weekday traffic volume' to /Users/adfil/Documents/MATSim/matsim-example-project/scenarios/testfeldUnterschleissheimPt/plans10000.xml/ITERS/it.10/10.countscompareAWTV.txt
2022-08-12T16:25:57,943  INFO ControlerListenerManagerImpl:167 calling notifyIterationEnds on org.matsim.analysis.ModeStatsControlerListener
2022-08-12T16:25:58,055  INFO ModeStatsControlerListener:144 Mode shares over all 20000.0 trips found. MainModeIdentifier: class org.matsim.core.router.RoutingModeMainModeIdentifier
2022-08-12T16:25:58,055  INFO ModeStatsControlerListener:151 -- mode share of mode car = 1.0
2022-08-12T16:25:58,254  INFO ControlerListenerManagerImpl:167 calling notifyIterationEnds on org.matsim.analysis.ScoreStatsControlerListener
2022-08-12T16:25:58,260  INFO ScoreStatsControlerListener:181 -- avg. score of the executed plan of each agent: 105.78776494413933
2022-08-12T16:25:58,261  INFO ScoreStatsControlerListener:182 -- avg. score of the worst plan of each agent: 104.78381362167056
2022-08-12T16:25:58,261  INFO ScoreStatsControlerListener:183 -- avg. of the avg. plan score per agent: 105.69448141658539
2022-08-12T16:25:58,261  INFO ScoreStatsControlerListener:184 -- avg. score of the best plan of each agent: 106.46721713543981
2022-08-12T16:25:58,323  INFO ControlerListenerManagerImpl:167 calling notifyIterationEnds on org.matsim.analysis.IterationTravelStatsControlerListener
2022-08-12T16:25:58,336  INFO TravelDistanceStats:143 -- average leg distance per plan (executed plans only): 3693.1710375424996 meters
2022-08-12T16:25:58,336  INFO TravelDistanceStats:144 average leg distance per Person (executed plans only): 7031.0590212734105 meters (statistic on all 19038 legs which have a finite distance)
2022-08-12T16:25:58,336  INFO TravelDistanceStats:145 -- average trip distance per plan (executed plans only): 3693.1710375424996 meters
2022-08-12T16:25:58,336  INFO TravelDistanceStats:146 average trip distance per Person (executed plans only): 7031.0590212734105 meters (statistic on all 19038 trips which have a finite distance)
2022-08-12T16:25:58,336  INFO TravelDistanceStats:147 (TravelDistanceStats takes an average over all legs where the simulation reports travelled (network) distances
2022-08-12T16:25:58,336  INFO TravelDistanceStats:148 (and teleported legs whose route contains a distance.)
2022-08-12T16:25:59,360  INFO ControlerListenerManagerImpl:167 calling notifyIterationEnds on org.matsim.analysis.LegHistogramListener
2022-08-12T16:25:59,362  INFO LegHistogramListener:72 number of legs:	19519	100%
2022-08-12T16:25:59,362  INFO LegHistogramListener:79 number of car legs:	19519	100.0%
2022-08-12T16:25:59,483  INFO ControlerListenerManagerImpl:167 calling notifyIterationEnds on org.matsim.analysis.LinkStatsControlerListener
2022-08-12T16:25:59,483  INFO ControlerListenerManagerImpl:171 [it.10] all ControlerIterationEndsListeners called.
2022-08-12T16:25:59,557  INFO AbstractController:181 ### ITERATION 10 ENDS
2022-08-12T16:25:59,558  INFO AbstractController:182 ###################################################
2022-08-12T16:25:59,558  INFO MatsimRuntimeModifications:79 S H U T D O W N   ---   start shutdown.
2022-08-12T16:25:59,558  INFO ControlerListenerManagerImpl:121 calling notifyShutdown on org.matsim.core.controler.corelisteners.EventsHandlingImpl
2022-08-12T16:25:59,558  INFO ControlerListenerManagerImpl:121 calling notifyShutdown on org.matsim.core.controler.corelisteners.DumpDataAtEndImpl
2022-08-12T16:25:59,567  INFO Counter:69 [PopulationWriter] dumped person # 1
2022-08-12T16:25:59,567  INFO Counter:69 [PopulationWriter] dumped person # 2
2022-08-12T16:25:59,568  INFO Counter:69 [PopulationWriter] dumped person # 4
2022-08-12T16:25:59,573  INFO Counter:69 [PopulationWriter] dumped person # 8
2022-08-12T16:25:59,574  INFO Counter:69 [PopulationWriter] dumped person # 16
2022-08-12T16:25:59,585  INFO Counter:69 [PopulationWriter] dumped person # 32
2022-08-12T16:25:59,613  INFO Counter:69 [PopulationWriter] dumped person # 64
2022-08-12T16:25:59,659  INFO Counter:69 [PopulationWriter] dumped person # 128
2022-08-12T16:25:59,719  INFO Counter:69 [PopulationWriter] dumped person # 256
2022-08-12T16:25:59,762  INFO Counter:69 [PopulationWriter] dumped person # 512
2022-08-12T16:25:59,965  INFO Counter:69 [PopulationWriter] dumped person # 1024
2022-08-12T16:26:00,183  INFO Counter:69 [PopulationWriter] dumped person # 2048
2022-08-12T16:26:00,562  INFO Counter:69 [PopulationWriter] dumped person # 4096
2022-08-12T16:26:01,258  INFO Counter:69 [PopulationWriter] dumped person # 8192
2022-08-12T16:26:01,569  INFO PopulationWriter:144 Population written to: /Users/adfil/Documents/MATSim/matsim-example-project/scenarios/testfeldUnterschleissheimPt/plans10000.xml/output_plans.xml.gz
2022-08-12T16:26:01,570  INFO Counter:74 [PopulationWriter] dumped person # 10000
2022-08-12T16:26:01,576  INFO NetworkWriter:69 Writing network to file: /Users/adfil/Documents/MATSim/matsim-example-project/scenarios/testfeldUnterschleissheimPt/plans10000.xml/output_network.xml.gz...
2022-08-12T16:26:01,877  INFO NetworkWriter:72 done.
2022-08-12T16:26:01,886  INFO Config:601 setting context to [file:/Users/adfil/Documents/MATSim/matsim-example-project/]
2022-08-12T16:26:01,891  INFO Config:601 setting context to [file:/Users/adfil/Documents/MATSim/matsim-example-project/]
2022-08-12T16:26:01,895  INFO Config:601 setting context to [file:/Users/adfil/Documents/MATSim/matsim-example-project/]
2022-08-12T16:26:01,899  INFO Config:601 setting context to [file:/Users/adfil/Documents/MATSim/matsim-example-project/]
2022-08-12T16:26:01,903  INFO Config:601 setting context to [file:/Users/adfil/Documents/MATSim/matsim-example-project/]
2022-08-12T16:26:01,912  INFO Config:601 setting context to [file:/Users/adfil/Documents/MATSim/matsim-example-project/]
2022-08-12T16:26:01,916  INFO Config:601 setting context to [file:/Users/adfil/Documents/MATSim/matsim-example-project/]
2022-08-12T16:26:01,919  INFO Config:601 setting context to [file:/Users/adfil/Documents/MATSim/matsim-example-project/]
2022-08-12T16:26:01,924  INFO Config:601 setting context to [file:/Users/adfil/Documents/MATSim/matsim-example-project/]
2022-08-12T16:26:01,928  INFO Config:601 setting context to [file:/Users/adfil/Documents/MATSim/matsim-example-project/]
2022-08-12T16:26:01,932  INFO Config:601 setting context to [file:/Users/adfil/Documents/MATSim/matsim-example-project/]
2022-08-12T16:26:01,943  INFO Config:601 setting context to [file:/Users/adfil/Documents/MATSim/matsim-example-project/]
2022-08-12T16:26:01,950  INFO Config:601 setting context to [file:/Users/adfil/Documents/MATSim/matsim-example-project/]
2022-08-12T16:26:01,957  INFO Config:601 setting context to [file:/Users/adfil/Documents/MATSim/matsim-example-project/]
2022-08-12T16:26:01,973  INFO Config:601 setting context to [file:/Users/adfil/Documents/MATSim/matsim-example-project/]
2022-08-12T16:26:01,980  INFO Config:601 setting context to [file:/Users/adfil/Documents/MATSim/matsim-example-project/]
2022-08-12T16:26:01,987  INFO Config:601 setting context to [file:/Users/adfil/Documents/MATSim/matsim-example-project/]
2022-08-12T16:26:01,996  INFO Config:601 setting context to [file:/Users/adfil/Documents/MATSim/matsim-example-project/]
2022-08-12T16:26:02,022  INFO Config:601 setting context to [file:/Users/adfil/Documents/MATSim/matsim-example-project/]
2022-08-12T16:26:02,027  INFO Config:601 setting context to [file:/Users/adfil/Documents/MATSim/matsim-example-project/]
2022-08-12T16:26:02,034  INFO Config:601 setting context to [file:/Users/adfil/Documents/MATSim/matsim-example-project/]
2022-08-12T16:26:02,039  INFO Config:601 setting context to [file:/Users/adfil/Documents/MATSim/matsim-example-project/]
2022-08-12T16:26:02,044  INFO Config:601 setting context to [file:/Users/adfil/Documents/MATSim/matsim-example-project/]
2022-08-12T16:26:02,049  INFO Config:601 setting context to [file:/Users/adfil/Documents/MATSim/matsim-example-project/]
2022-08-12T16:26:02,056  INFO Config:601 setting context to [file:/Users/adfil/Documents/MATSim/matsim-example-project/]
2022-08-12T16:26:02,059  INFO Config:601 setting context to [file:/Users/adfil/Documents/MATSim/matsim-example-project/]
2022-08-12T16:26:02,067  INFO MatsimVehicleWriter:54 about to write vehicles to: /Users/adfil/Documents/MATSim/matsim-example-project/scenarios/testfeldUnterschleissheimPt/plans10000.xml/output_vehicles.xml.gz
2022-08-12T16:26:02,068  INFO VehicleWriterV2:63 about to write vehicles to: /Users/adfil/Documents/MATSim/matsim-example-project/scenarios/testfeldUnterschleissheimPt/plans10000.xml/output_vehicles.xml.gz
2022-08-12T16:26:02,100  INFO MatsimVehicleWriter:54 about to write vehicles to: /Users/adfil/Documents/MATSim/matsim-example-project/scenarios/testfeldUnterschleissheimPt/plans10000.xml/output_allVehicles.xml.gz
2022-08-12T16:26:02,102  INFO VehicleWriterV2:63 about to write vehicles to: /Users/adfil/Documents/MATSim/matsim-example-project/scenarios/testfeldUnterschleissheimPt/plans10000.xml/output_allVehicles.xml.gz
2022-08-12T16:26:02,148  INFO HouseholdsWriterV10:66 about to write  households to: /Users/adfil/Documents/MATSim/matsim-example-project/scenarios/testfeldUnterschleissheimPt/plans10000.xml/output_households.xml.gz
2022-08-12T16:26:02,149  INFO Counter:74 [HouseholdsWriter] wrote household # 0
2022-08-12T16:26:02,243  INFO ControlerListenerManagerImpl:126 calling notifyShutdown on org.matsim.analysis.ScoreStatsControlerListener
2022-08-12T16:26:02,243  INFO ControlerListenerManagerImpl:126 calling notifyShutdown on org.matsim.analysis.IterationTravelStatsControlerListener
2022-08-12T16:26:02,244  INFO IterationTravelStatsControlerListener:108 Writing all Person and Attributes to personscsv
2022-08-12T16:26:02,496  INFO IterationTravelStatsControlerListener:152 ...done
2022-08-12T16:26:02,496  INFO ControlerListenerManagerImpl:129 all ControlerShutdownListeners called.
2022-08-12T16:26:02,496  INFO MatsimRuntimeModifications:102 S H U T D O W N   ---   shutdown completed.
2022-08-12T16:26:02,496  INFO OutputDirectoryLogging:170 closing the logfile, i.e. messages sent to the logger after this message are not written to the logfile.
